data_mof_unit_pretest_1459.cif
_audit_creation_date              2012-10-26T20:14:47-0400
_audit_creation_method            fapswitch 2.2
_symmetry_space_group_name_H-M    P1
_symmetry_Int_Tables_number       1
_space_group_crystal_system       triclinic
_cell_length_a                    27.811189
_cell_length_b                    9.099325
_cell_length_c                    7.779573
_cell_angle_alpha                 89.993268
_cell_angle_beta                  90.000435
_cell_angle_gamma                 89.996608
_cell_volume                      1968.72243335

loop_
_atom_site_label
_atom_site_type_symbol
_atom_type_description
_atom_site_fract_x
_atom_site_fract_y
_atom_site_fract_z
_atom_type_partial_charge
C1    C     C_R   0.500000 0.219988 0.500004 0.556964
C2    C     C_R   0.050738 0.499931 0.499979 0.034108
C3    C     C_R   0.947772 0.233425 0.474061 -0.140256
C4    C     C_R   0.052238 0.766528 0.474342 -0.140229
C5    C     C_R   0.947798 0.766577 0.525917 -0.140250
C6    C     C_R   0.052210 0.233335 0.525631 -0.140221
C7    C     C_1   0.500000 0.065354 0.500008 -0.036960
C8    C     C_1   0.500000 0.934646 0.499991 -0.036960
C9    C     C_R   0.407158 0.499990 0.500000 0.546708
C10   C     C_R   0.592841 0.500004 0.500001 0.546677
C11   C     C_R   0.177860 0.369427 0.515176 0.400577
C12   C     C_R   0.500000 0.780012 0.499996 0.556968
C13   C     C_R   0.822148 0.630492 0.515321 0.400517
C14   C     C_R   0.177872 0.630270 0.484782 0.400571
C15   C     C_R   0.822137 0.369663 0.484690 0.400513
C16   C     C_R   0.278515 0.490345 0.655421 -0.052427
C17   C     C_R   0.721479 0.511667 0.655222 -0.052429
C18   C     C_R   0.278516 0.509319 0.344584 -0.052410
C19   C     C_R   0.721480 0.488537 0.344806 -0.052411
C20   C     C_R   0.328660 0.490720 0.655656 -0.135446
C21   C     C_R   0.671334 0.511295 0.655465 -0.135567
C22   C     C_R   0.328662 0.509075 0.344350 -0.135440
C23   C     C_R   0.354202 0.499941 0.499995 0.007844
C24   C     C_R   0.671335 0.488828 0.344560 -0.135553
C25   C     C_R   0.253376 0.499810 0.500002 0.246117
C26   C     C_R   0.746624 0.500116 0.500015 0.245789
C27   C     C_R   0.101813 0.499896 0.499972 -0.027696
C28   C     C_R   0.898196 0.500032 0.500006 -0.027687
C29   C     C_R   0.127389 0.366894 0.514706 0.025215
C30   C     C_R   0.872620 0.633022 0.514872 0.025245
C31   C     C_R   0.127401 0.632865 0.485242 0.025215
C32   C     C_R   0.872607 0.367073 0.485135 0.025248
C33   C     C_R   0.102162 0.234795 0.529904 -0.109665
C34   C     C_R   0.645796 0.500038 0.500006 0.007806
C35   C     C_R   0.897846 0.765113 0.530189 -0.109683
C36   C     C_R   0.102188 0.765001 0.470062 -0.109660
C37   C     C_R   0.897821 0.234953 0.469794 -0.109672
C38   C     C_R   0.974522 0.364505 0.493951 0.019935
C39   C     C_R   0.025487 0.635430 0.494088 0.019941
C40   C     C_R   0.974535 0.635459 0.506036 0.019939
C41   C     C_R   0.025474 0.364467 0.505882 0.019940
C42   C     C_R   0.949271 0.499999 0.500000 0.034104
Cu1   Cu    Cu3+1 0.500000 0.500000 0.669080 1.032250
Cu2   Cu    Cu3+1 0.500000 0.500000 0.330920 1.032248
H1    H     H_    0.347376 0.516376 0.222546 0.134563
H2    H     H_    0.879034 0.868445 0.545820 0.163974
H3    H     H_    0.121012 0.868321 0.454539 0.163962
H4    H     H_    0.878997 0.131643 0.454145 0.164008
H5    H     H_    0.964523 0.127851 0.456284 0.099584
H6    H     H_    0.035490 0.872116 0.456704 0.099544
H7    H     H_    0.964558 0.872132 0.543675 0.099575
H8    H     H_    0.035447 0.127771 0.543292 0.099531
H9    H     H_    0.652617 0.479864 0.222924 0.134628
H10   H     H_    0.347372 0.483461 0.777456 0.134562
H11   H     H_    0.652617 0.520215 0.777089 0.134633
H12   H     H_    0.259143 0.516543 0.224106 0.125915
H13   H     H_    0.740850 0.479694 0.224496 0.126312
H14   H     H_    0.259140 0.483085 0.775903 0.125911
H15   H     H_    0.740849 0.520530 0.775535 0.126311
H16   H     H_    0.120974 0.131453 0.545445 0.163925
N1    N     N_R   0.201894 0.499833 0.499981 -0.402711
N2    N     N_R   0.798110 0.500092 0.500011 -0.402669
N3    N     N_1   0.500000 0.500000 0.076820 -0.081827
N4    N     N_1   0.500000 0.500000 0.923180 -0.081827
O1    O     O_R   0.500000 0.288390 0.642760 -0.493716
O2    O     O_2   0.797253 0.757214 0.529913 -0.470316
O3    O     O_2   0.202784 0.756947 0.470232 -0.470160
O4    O     O_2   0.797230 0.242971 0.470092 -0.470313
O5    O     O_R   0.500000 0.711610 0.357240 -0.493713
O6    O     O_R   0.500000 0.711610 0.642760 -0.493780
O7    O     O_R   0.500000 0.288390 0.357240 -0.493782
O8    O     O_R   0.430260 0.500000 0.642770 -0.505448
O9    O     O_R   0.569740 0.500000 0.357230 -0.505437
O10   O     O_R   0.569740 0.500000 0.642770 -0.505434
O11   O     O_R   0.430260 0.500000 0.357230 -0.505454
O12   O     O_2   0.202760 0.242723 0.529745 -0.470168

loop_
_geom_bond_atom_site_label_1
_geom_bond_atom_site_label_2
_ccdc_geom_bond_type
C12   O5    A    
C4    C36   A    
Cu1   O8    S    
C27   C29   A    
C9    O8    A    
C14   C31   A    
Cu1   O1    S    
C3    H5    S    
C7    C8    T    
C19   H13   S    
C1    O7    A    
C30   C35   A    
C36   H3    S    
C17   C26   A    
C16   C20   A    
C38   C42   A    
C11   O12   S    
C31   C36   A    
C10   O9    A    
C2    C41   A    
C29   C33   A    
Cu2   O7    S    
C19   C26   A    
C2    C39   A    
C13   N2    A    
C3    C38   A    
C6    C41   A    
C1    O1    A    
C14   O3    S    
C20   C23   A    
C2    C27   A    
C18   H12   S    
Cu1   O10   S    
C40   C42   A    
C18   C22   A    
C18   C25   A    
Cu1   N4    S    
C13   O2    S    
Cu2   N3    S    
C27   C31   A    
C13   C30   A    
C28   C32   A    
C38   C41   A    
C20   H10   S    
C39   C40   A    
C21   H11   S    
C9    C23   S    
C16   H14   S    
C21   C34   A    
C24   H9    S    
C14   N1    A    
C17   C21   A    
C4    H6    S    
Cu2   O11   S    
Cu1   Cu2   S    
C4    C39   A    
C8    C12   S    
Cu2   O5    S    
C10   C34   S    
C25   N1    S    
C32   C37   A    
C37   H4    S    
C3    C37   A    
C17   H15   S    
C33   H16   S    
C16   C25   A    
C12   O6    A    
C1    C7    S    
C11   N1    A    
C15   C32   A    
Cu1   O6    S    
C6    C33   A    
C28   C30   A    
C19   C24   A    
C26   N2    S    
C10   O10   A    
C15   O4    S    
C5    C35   A    
C28   C42   A    
C15   N2    A    
Cu2   O9    S    
C24   C34   A    
N3    N4    T    
C22   H1    S    
C11   C29   A    
C5    C40   A    
C22   C23   A    
C5    H7    S    
C9    O11   A    
C6    H8    S    
C35   H2    S    
