data_mof_unit_pretest_1539.cif
_audit_creation_date              2013-03-05T16:17:35-0500
_audit_creation_method            fapswitch 2.2
_symmetry_space_group_name_H-M    P1
_symmetry_Int_Tables_number       1
_space_group_crystal_system       triclinic
_cell_length_a                    13.042967
_cell_length_b                    13.621403
_cell_length_c                    27.63475
_cell_angle_alpha                 90.109625
_cell_angle_beta                  92.309795
_cell_angle_gamma                 85.776053
_cell_volume                      4892.36995742

loop_
_atom_site_label
_atom_site_type_symbol
_atom_site_description
_atom_site_fract_x
_atom_site_fract_y
_atom_site_fract_z
_atom_type_partial_charge
O1    O     O_R   0.402510 0.634760 0.497160 -0.599059
O2    O     O_R   0.597490 0.365240 0.502840 -0.599057
O3    O     O_R   0.572960 0.644530 0.502140 -0.605591
O4    O     O_R   0.427040 0.355470 0.497860 -0.605590
C1    C     C_R   0.481250 0.685162 0.499361 0.903381
C2    C     C_R   0.518750 0.314838 0.500639 0.903380
O5    O     O_R   0.414790 0.495100 0.568760 -0.593081
O6    O     O_R   0.585210 0.504900 0.431240 -0.593079
O7    O     O_R   0.585240 0.504870 0.573730 -0.610457
O8    O     O_R   0.414760 0.495130 0.426270 -0.610456
C3    C     C_R   0.498947 0.500237 0.593942 0.921894
C4    C     C_R   0.501053 0.499762 0.406058 0.921890
Zn1   Zn    Zn3+2 0.386190 0.493480 0.496680 1.011786
Zn2   Zn    Zn3+2 0.613810 0.506520 0.503320 1.011786
C5    C     C_R   0.558827 0.561385 0.823157 0.556691
C6    C     C_R   0.441194 0.438542 0.176845 0.556692
O9    O     O_2   0.630388 0.606063 0.799007 -0.527301
O10   O     O_2   0.369629 0.393871 0.200996 -0.527300
N1    N     N_R   0.485270 0.513214 0.798204 -0.343538
N2    N     N_R   0.514745 0.486722 0.201797 -0.343538
C7    C     C_R   0.408119 0.471878 0.821049 0.569644
C8    C     C_R   0.591902 0.528049 0.178951 0.569642
C9    C     C_R   0.545295 0.428043 0.725084 0.220680
C10   C     C_R   0.454712 0.571915 0.274910 0.220682
C11   C     C_R   0.548983 0.424326 0.674146 0.069535
C12   C     C_R   0.451021 0.575649 0.325848 0.069534
C13   C     C_R   0.439497 0.578791 0.669051 0.097282
C14   C     C_R   0.560507 0.421184 0.330955 0.097284
C15   C     C_R   0.436112 0.580934 0.719035 -0.145123
C16   C     C_R   0.563894 0.419025 0.280972 -0.145127
C17   C     C_R   0.488631 0.506844 0.746845 0.180821
C18   C     C_R   0.511377 0.493107 0.253155 0.180820
C19   C     C_R   0.486689 0.514412 0.898283 -0.050049
C20   C     C_R   0.513344 0.485493 0.101719 -0.050051
C21   C     C_R   0.560685 0.563230 0.873746 -0.024884
C22   C     C_R   0.439345 0.436682 0.126256 -0.024885
C23   C     C_R   0.632148 0.615299 0.900188 -0.109499
C24   C     C_R   0.367888 0.384603 0.099815 -0.109497
C25   C     C_R   0.406785 0.472739 0.871644 -0.069090
C26   C     C_R   0.593245 0.527173 0.128357 -0.069088
C27   C     C_R   0.496147 0.501076 0.646455 -0.125376
C28   C     C_R   0.503856 0.498907 0.353545 -0.125376
H1    H     H_    0.393398 0.641149 0.736651 0.179709
H2    H     H_    0.606609 0.358804 0.263360 0.179708
H3    H     H_    0.684429 0.660190 0.882267 0.200945
H4    H     H_    0.315607 0.339714 0.117737 0.200943
C29   C     C_R   0.586653 0.535795 0.026216 -0.013932
C30   C     C_R   0.413388 0.464096 0.973786 -0.013933
C31   C     C_R   0.425882 0.449888 0.024452 0.065143
C32   C     C_R   0.574160 0.550004 0.975549 0.065145
C33   C     C_R   0.508124 0.491400 0.050599 0.060844
C34   C     C_R   0.491916 0.508495 0.949403 0.060843
C35   C     C_R   0.676428 0.559319 0.053836 0.122820
C36   C     C_R   0.323612 0.440573 0.946166 0.122824
C37   C     C_R   0.675338 0.561499 0.104168 -0.134689
C38   C     C_R   0.324697 0.438404 0.895833 -0.134688
O11   O     O_2   0.666297 0.570317 0.205175 -0.526299
O12   O     O_2   0.333719 0.429618 0.794826 -0.526298
C39   C     C_R   0.635658 0.611899 0.950390 -0.161368
C40   C     C_R   0.364385 0.387994 0.049612 -0.161365
H5    H     H_    0.742598 0.583627 0.124471 0.213999
H6    H     H_    0.257435 0.416280 0.875530 0.214000
H7    H     H_    0.684436 0.661239 0.969124 0.181646
H8    H     H_    0.315611 0.338648 0.030880 0.181646
C41   C     C_1   0.533642 0.211689 0.501161 -0.142151
C42   C     C_1   0.466358 0.788311 0.498839 -0.142154
C43   C     C_2   0.544578 0.020512 0.501507 -0.143580
C44   C     C_2   0.455422 0.979488 0.498495 -0.143581
C45   C     C_1   0.457467 0.875733 0.498545 0.040844
C46   C     C_1   0.542533 0.124266 0.501456 0.040847
H9    H     H_    0.382103 0.023041 0.496036 0.169600
H10   H     H_    0.617897 0.976958 0.503965 0.169601
N3    N     N_1   0.234530 0.484780 0.492250 -0.084741
N4    N     N_1   0.765470 0.515220 0.507750 -0.084740
C47   C     C_2   0.033239 0.473225 0.486156 -0.228052
C48   C     C_2   0.966761 0.526774 0.513844 -0.228052
C49   C     C_1   0.854737 0.519506 0.510010 0.174728
C50   C     C_1   0.145263 0.480494 0.489990 0.174727
H11   H     H_    0.996391 0.577742 0.540262 0.179459
H12   H     H_    0.003609 0.422258 0.459738 0.179459
I1    I     I_    0.361161 0.698348 0.630214 -0.302246
I2    I     I_    0.638840 0.301638 0.369801 -0.302255
C51   C     C_3   0.393837 0.660344 0.351302 -0.794413
H13   H     H_    0.364430 0.720943 0.326868 0.264929
H14   H     H_    0.327147 0.633391 0.369647 0.254405
H15   H     H_    0.446062 0.692646 0.378743 0.216397
C52   C     C_3   0.606166 0.339639 0.648685 -0.794402
H16   H     H_    0.635571 0.279031 0.673114 0.264925
H17   H     H_    0.553939 0.307347 0.621242 0.216392
H18   H     H_    0.672856 0.366597 0.630343 0.254406
I3    I     I_    0.375424 0.681038 0.228739 -0.260845
I4    I     I_    0.624587 0.318907 0.771246 -0.260846
I5    I     I_    0.828443 0.560506 0.027451 -0.261816
I6    I     I_    0.171598 0.439373 0.972552 -0.261819

loop_
_geom_bond_atom_site_label_1
_geom_bond_atom_site_label_2
_geom_bond_distance
_ccdc_geom_bond_type
C52   H16   1.104103 S    
C12   C51   1.514749 S    
C13   C15   1.383962 A    
C48   H11   1.085890 S    
C47   C48   1.351844 D    
N1    C17   1.424012 S    
C8    O11   1.349893 S    
C19   C34   1.413744 A    
C5    N1    1.365341 A    
C20   C33   1.413741 A    
C19   C25   1.404999 A    
C31   C40   1.408690 A    
O1    C1    1.276110 A    
C32   C39   1.408691 A    
Zn2   N4    1.989183 S    
C21   C23   1.395090 A    
C10   C12   1.411098 A    
C42   C45   1.187928 T    
C41   C46   1.187928 T    
C11   C52   1.514749 S    
C43   H10   1.087400 S    
O4    Zn1   1.915780 S    
C4    C28   1.453116 S    
C2    C41   1.404179 S    
C25   C38   1.394473 A    
C44   C45   1.411565 S    
C31   C33   1.420485 A    
N4    C49   1.169218 T    
C32   C34   1.420491 A    
N3    C50   1.169218 T    
C47   H12   1.085890 S    
C6    N2    1.365342 A    
C29   C35   1.427814 A    
C15   H1    1.083119 S    
C16   H2    1.083119 S    
O2    C2    1.276111 A    
C5    C21   1.397471 A    
O5    C3    1.282031 A    
C29   C32   1.415073 A    
C35   C37   1.391798 A    
C36   C38   1.391801 A    
C24   H4    1.083497 S    
C14   I2    2.126288 S    
C43   C44   1.326336 D    
C13   I1    2.126288 S    
C48   C49   1.471288 S    
O4    C2    1.279949 A    
C11   C27   1.416994 A    
C29   C33   1.420305 A    
C35   I5    2.141127 S    
C9    C17   1.405882 A    
C30   C36   1.427818 A    
O7    Zn2   1.996297 S    
C10   C18   1.405883 A    
C13   C27   1.405665 A    
C51   H13   1.104103 S    
C7    C25   1.398994 A    
C30   C34   1.420313 A    
O6    C4    1.282031 A    
C26   C37   1.394474 A    
C8    C26   1.398991 A    
O7    C3    1.282194 A    
C23   C39   1.386977 A    
O3    Zn2   1.915781 S    
O8    C4    1.282197 A    
C24   C40   1.386981 A    
C30   C31   1.415076 A    
C51   H14   1.109813 S    
N2    C8    1.365372 A    
C52   H17   1.110797 S    
C38   H6    1.083470 S    
O1    Zn1   1.951652 S    
C23   H3    1.083496 S    
C10   I3    2.140405 S    
C12   C28   1.416994 A    
N2    C18   1.424016 S    
C5    O9    1.349964 S    
O6    Zn2   2.012090 S    
N1    C7    1.365373 A    
Zn1   N3    1.989184 S    
C1    C42   1.404179 S    
O3    C1    1.279948 A    
O8    Zn1   1.996299 S    
C39   H7    1.076838 S    
C40   H8    1.076840 S    
C43   C46   1.411565 S    
C22   C24   1.395093 A    
C7    O12   1.349891 S    
C15   C17   1.391789 A    
C6    C22   1.397472 A    
C16   C18   1.391786 A    
C44   H9    1.087400 S    
C37   H5    1.083468 S    
C14   C28   1.405667 A    
C19   C21   1.407989 A    
C14   C16   1.383959 A    
C3    C27   1.453119 S    
C20   C22   1.407988 A    
C9    C11   1.411097 A    
O2    Zn2   1.951652 S    
C47   C50   1.471288 S    
C36   I6    2.141132 S    
O5    Zn1   2.012087 S    
C51   H15   1.110798 S    
C6    O10   1.349964 S    
C52   H18   1.109813 S    
C9    I4    2.140407 S    
C20   C26   1.404998 A    
