data_mof_unit_pretest_1351.cif
_audit_creation_date              2012-12-10T17:42:41-0500
_audit_creation_method            fapswitch 2.2
_symmetry_space_group_name_H-M    P1
_symmetry_Int_Tables_number       1
_space_group_crystal_system       triclinic
_cell_length_a                    9.999997
_cell_length_b                    10.740289
_cell_length_c                    13.048508
_cell_angle_alpha                 91.792331
_cell_angle_beta                  69.02504
_cell_angle_gamma                 88.393566
_cell_volume                      1306.78668122

loop_
_atom_site_label
_atom_site_type_symbol
_atom_type_description
_atom_site_fract_x
_atom_site_fract_y
_atom_site_fract_z
_atom_type_partial_charge
C1    C     C_R   0.501881 0.739133 0.491062 0.918633
C2    C     C_R   0.429886 0.472378 0.989040 -0.125408
C3    C     C_R   0.450642 0.437194 0.879801 -0.185660
C4    C     C_R   0.541275 0.447058 0.028674 -0.041666
C5    C     C_R   0.649798 0.355266 0.973708 -0.052422
C6    C     C_R   0.650515 0.296506 0.875071 0.039911
C7    C     C_R   0.553821 0.340844 0.827074 0.645940
C8    C     C_R   0.547843 0.512351 0.121239 0.650053
C9    C     C_R   0.739328 0.371366 0.124930 0.017139
C10   C     C_R   0.363198 0.495201 0.828811 -0.134128
C11   C     C_R   0.262722 0.898290 0.464750 -0.302157
C12   C     C_R   0.418341 0.499185 0.706098 1.015715
C13   C     C_R   0.132894 0.966531 0.494427 0.579319
C14   C     C_R   0.113542 0.077828 0.556814 0.547958
C15   C     C_R   0.227567 0.126028 0.579559 -0.319445
C16   C     C_R   0.365063 0.066655 0.535201 -0.016486
C17   C     C_R   0.376472 0.943766 0.493712 -0.014677
C18   C     C_R   0.501680 0.872665 0.483002 -0.102250
C19   C     C_R   0.622485 0.930130 0.487497 -0.149604
C20   C     C_R   0.619566 0.055919 0.510798 0.069186
C21   C     C_R   0.492119 0.127334 0.527184 -0.026611
C22   C     C_R   0.799330 0.683259 0.637553 0.571626
C23   C     C_R   0.496812 0.260882 0.510964 0.896849
C24   C     C_R   0.846100 0.773625 0.694456 0.646075
C25   C     C_R   0.985416 0.769989 0.689826 -0.382877
C26   C     C_R   0.079431 0.676302 0.627754 -0.257393
C27   C     C_R   0.041099 0.588122 0.563425 0.089384
C28   C     C_R   0.896035 0.589195 0.565594 -0.136160
C29   C     C_R   0.960153 0.415296 0.439048 0.674860
C30   C     C_R   0.102347 0.415291 0.439243 -0.051782
C31   C     C_R   0.581241 0.495034 0.295094 0.919833
C32   C     C_R   0.751030 0.321471 0.021386 -0.156238
C33   C     C_R   0.633242 0.466151 0.176390 -0.231890
C34   C     C_R   0.233667 0.560609 0.896868 0.092259
C35   C     C_R   0.194702 0.564628 0.012581 0.102039
C36   C     C_R   0.294139 0.521860 0.057506 0.707890
H1    H     H_    0.274208 0.813060 0.415594 0.243640
H2    H     H_    0.208115 0.211566 0.629771 0.208068
H3    H     H_    0.019946 0.837748 0.737360 0.198239
H4    H     H_    0.181063 0.671337 0.634800 0.246879
H5    H     H_    0.180732 0.345557 0.389362 0.175669
H6    H     H_    0.834797 0.251119 0.981682 0.165507
H7    H     H_    0.720251 0.875954 0.476512 0.208113
N1    N     N_R   0.856860 0.501200 0.500990 -0.143911
N2    N     N_R   0.142450 0.501280 0.501020 -0.133324
O1    O     O_R   0.385310 0.683220 0.500000 -0.653029
O2    O     O_R   0.614640 0.683250 0.500010 -0.561622
O3    O     O_R   0.328400 0.499950 0.653610 -0.660906
O4    O     O_R   0.557730 0.499970 0.653620 -0.509356
O5    O     O_R   0.385360 0.316750 0.499990 -0.643715
O6    O     O_R   0.614690 0.316780 0.500000 -0.569704
O7    O     O_R   0.442270 0.500030 0.346380 -0.545965
O8    O     O_R   0.671600 0.500050 0.346390 -0.609968
Zn1   Zn    Zn3+2 0.346880 0.499980 0.499990 0.974852
Zn2   Zn    Zn3+2 0.653120 0.500020 0.500010 1.056111
C37   C     C_3   0.835523 0.317895 0.180166 -0.686433
H8    H     H_    0.769772 0.275114 0.257452 0.263617
H9    H     H_    0.911941 0.244439 0.127741 0.222873
H10   H     H_    0.899224 0.392770 0.197982 0.277232
F1    F     F_    0.025751 0.922193 0.464899 -0.683233
F2    F     F_    0.987703 0.144017 0.590722 -0.710514
C38   C     C_3   0.753512 0.103619 0.522495 -0.547299
H11   H     H_    0.736979 0.190080 0.573869 0.298003
H12   H     H_    0.794275 0.034320 0.566626 0.284520
H13   H     H_    0.836057 0.114680 0.440115 0.282857
F3    F     F_    0.926648 0.327639 0.376725 -0.690274
F4    F     F_    0.657378 0.690352 0.664154 -0.626936
F5    F     F_    0.752356 0.862604 0.759555 -0.635692
C39   C     C_3   0.751697 0.186465 0.821956 -0.672073
H14   H     H_    0.732125 0.144570 0.750432 0.310075
H15   H     H_    0.863997 0.216368 0.794254 0.240467
H16   H     H_    0.737323 0.112145 0.881797 0.245292
F6    F     F_    0.470368 0.621224 0.159846 -0.623567
C40   C     C_3   0.140170 0.627717 0.846628 -0.841746
H17   H     H_    0.044993 0.679103 0.905726 0.248783
H18   H     H_    0.204979 0.698848 0.793333 0.234102
H19   H     H_    0.099065 0.558894 0.801365 0.256322
F7    F     F_    0.253100 0.517180 0.168573 -0.642352
C41   C     C_3   0.050306 0.617999 0.088937 -0.791458
H20   H     H_    0.042414 0.719986 0.078612 0.245168
H21   H     H_    0.963121 0.571331 0.070499 0.231196
H22   H     H_    0.031845 0.604820 0.177057 0.281017
F8    F     F_    0.548625 0.280243 0.736062 -0.713342

loop_
_geom_bond_atom_site_label_1
_geom_bond_atom_site_label_2
_ccdc_geom_bond_type
C6    C39   S    
C7    F8    S    
C16   C21   A    
C30   N2    A    
C19   C20   A    
C31   O7    A    
C12   O3    A    
C12   O4    A    
C13   F1    S    
O3    Zn1   S    
C26   C27   A    
C38   H11   S    
C40   H18   S    
C34   C35   A    
C3    C7    A    
C5    C6    A    
C1    O1    A    
C15   C16   A    
C37   H8    S    
C39   H15   S    
C18   C19   A    
C11   H1    S    
C38   H12   S    
C9    C32   A    
C35   C36   A    
O7    Zn1   S    
C16   C17   A    
C40   H19   S    
C31   C33   S    
C30   H5    S    
C4    C8    A    
C5    C32   A    
C27   N2    A    
C22   C28   A    
C13   C14   A    
C9    C33   A    
C19   H7    S    
O8    Zn2   S    
C40   H17   S    
C24   C25   A    
C41   H21   S    
C1    O2    A    
C23   O5    A    
C25   C26   A    
O4    Zn2   S    
C14   F2    S    
C28   N1    A    
C29   F3    S    
C39   H16   S    
C2    C4    A    
C15   H2    S    
C29   C30   A    
C23   O6    A    
O1    Zn1   S    
C17   C18   A    
C1    C18   S    
C10   C34   A    
C9    C37   S    
O5    Zn1   S    
C31   O8    A    
C10   C12   S    
C34   C40   S    
N2    Zn1   S    
C21   C23   S    
C29   N1    A    
C22   C24   A    
O2    Zn2   S    
C2    C36   A    
C11   C17   A    
C38   H13   S    
C4    C5    A    
C41   H22   S    
C6    C7    A    
C37   H10   S    
C2    C3    A    
C3    C10   A    
C36   F7    S    
C25   H3    S    
C11   C13   A    
N1    Zn2   S    
C26   H4    S    
C35   C41   S    
C8    F6    S    
C37   H9    S    
O6    Zn2   S    
C8    C33   A    
C20   C38   S    
C39   H14   S    
C22   F4    S    
C24   F5    S    
C41   H20   S    
C20   C21   A    
C27   C28   A    
C32   H6    S    
C14   C15   A    
