data_mof_unit_pretest_1114.cif
_audit_creation_date              2012-10-26T21:01:03-0400
_audit_creation_method            fapswitch 2.2
_symmetry_space_group_name_H-M    P1
_symmetry_Int_Tables_number       1
_space_group_crystal_system       triclinic
_cell_length_a                    10.929463
_cell_length_b                    10.812968
_cell_length_c                    9.548486
_cell_angle_alpha                 90.253261
_cell_angle_beta                  89.748949
_cell_angle_gamma                 90.144624
_cell_volume                      1128.41404588

loop_
_atom_site_label
_atom_site_type_symbol
_atom_type_description
_atom_site_fract_x
_atom_site_fract_y
_atom_site_fract_z
_atom_type_partial_charge
C1    C     C_R   0.494630 0.262396 0.499819 0.557798
C2    C     C_R   0.430435 0.418659 0.074279 -0.014460
C3    C     C_R   0.430475 0.418478 0.925473 -0.015855
C4    C     C_R   0.265337 0.497532 0.500323 0.544852
C5    C     C_R   0.561060 0.590009 0.926349 0.160966
C6    C     C_3   0.694907 0.616677 0.920207 -0.280646
C7    C     C_3   0.694520 0.617425 0.079009 -0.277269
C8    C     C_R   0.497881 0.737616 0.500335 0.550980
C9    C     C_R   0.734686 0.500887 0.499889 0.551087
C10   C     C_2   0.933458 0.483747 0.386486 -0.163533
C11   C     C_2   0.866740 0.506700 0.501652 -0.120212
C12   C     C_R   0.478726 0.129161 0.501148 0.029360
C13   C     C_2   0.067349 0.490275 0.385485 -0.168588
C14   C     C_2   0.133369 0.489301 0.503317 -0.126092
C15   C     C_R   0.507009 0.064300 0.622686 -0.013966
C16   C     C_3   0.252339 0.163244 0.295736 -0.298182
C17   C     C_R   0.431001 0.062547 0.385368 0.110938
C18   C     C_R   0.437407 0.932880 0.385443 -0.151167
C19   C     C_R   0.484629 0.870482 0.501990 -0.018121
C20   C     C_R   0.508658 0.937396 0.623732 0.015352
C21   C     C_3   0.616312 0.933630 0.719392 -0.269664
C22   C     C_3   0.614677 0.074127 0.717811 -0.266865
C23   C     C_R   0.560856 0.590179 0.073736 0.158476
Cu1   Cu    Cu3+1 0.499990 0.499980 0.640670 0.932938
Cu2   Cu    Cu3+1 0.500010 0.500020 0.359330 0.943278
H1    H     H_    0.889174 0.461249 0.288136 0.135802
H2    H     H_    0.112241 0.493995 0.283838 0.144980
H3    H     H_    0.091876 0.478879 0.605719 0.099981
H4    H     H_    0.406556 0.881528 0.294437 0.129084
H5    H     H_    0.592043 0.894514 0.823344 0.135535
H6    H     H_    0.698923 0.893075 0.668810 0.129609
H7    H     H_    0.589986 0.115606 0.820837 0.143276
H8    H     H_    0.385454 0.076773 0.176054 0.238063
H9    H     H_    0.192988 0.081780 0.317115 0.134907
H10   H     H_    0.216399 0.211711 0.202366 0.119887
H11   H     H_    0.248412 0.227913 0.386337 0.162877
H12   H     H_    0.696129 0.115555 0.665677 0.135879
H13   H     H_    0.375874 0.351590 0.129902 0.138173
H14   H     H_    0.376033 0.350842 0.869667 0.114790
H15   H     H_    0.748858 0.538979 0.875188 0.151706
H16   H     H_    0.715204 0.708660 0.874279 0.115662
H17   H     H_    0.748308 0.540254 0.123549 0.146395
H18   H     H_    0.713856 0.710028 0.124947 0.125724
H19   H     H_    0.907660 0.532478 0.600603 0.094044
N1    N     N_R   0.500780 0.500930 0.147930 -0.232656
N2    N     N_R   0.500780 0.500890 0.852020 -0.230325
N3    N     N_2   0.376950 0.124007 0.269710 -0.504882
O1    O     O_R   0.500000 0.319640 0.618810 -0.514524
O2    O     O_R   0.500010 0.319680 0.381230 -0.470050
O3    O     O_R   0.321940 0.499980 0.618760 -0.504361
O4    O     O_R   0.321950 0.500020 0.381180 -0.504812
O5    O     O_R   0.499990 0.680320 0.618770 -0.491697
O6    O     O_R   0.500000 0.680360 0.381190 -0.505782
O7    O     O_R   0.678050 0.499980 0.618820 -0.507730
O8    O     O_R   0.678060 0.500020 0.381240 -0.500961

loop_
_geom_bond_atom_site_label_1
_geom_bond_atom_site_label_2
_ccdc_geom_bond_type
C12   C17   A    
Cu1   O5    S    
Cu2   O4    S    
C1    O1    A    
C6    C7    S    
C23   N1    A    
C7    H18   S    
C9    C11   S    
C21   H5    S    
C8    O5    A    
C3    N2    A    
C19   C20   A    
C5    C23   A    
C12   C15   A    
C16   H9    S    
C10   H1    S    
C2    C3    A    
C8    O6    A    
C3    H14   S    
C11   H19   S    
C16   H10   S    
C18   H4    S    
C21   C22   S    
C16   H11   S    
Cu1   O3    S    
C21   H6    S    
C5    C6    S    
C1    C12   S    
C22   H7    S    
C9    O8    A    
C16   N3    S    
Cu2   O6    S    
C17   C18   A    
Cu2   O2    S    
C2    N1    A    
C4    C14   S    
C15   C20   A    
H8    N3    S    
C7    C23   S    
C8    C19   S    
C10   C11   D    
C4    O4    A    
Cu1   O7    S    
Cu1   O1    S    
Cu2   N1    S    
C6    H15   S    
Cu1   Cu2   S    
C18   C19   A    
C5    N2    A    
C7    H17   S    
C2    H13   S    
C13   H2    S    
C9    O7    A    
C14   H3    S    
C20   C21   S    
C13   C14   D    
C22   H12   S    
C1    O2    A    
C6    H16   S    
C15   C22   S    
Cu2   O8    S    
C17   N3    S    
C4    O3    A    
Cu1   N2    S    
C10   C13   S    
