data_mof_unit_pretest_999.cif
_audit_creation_date              2013-03-05T15:42:26-0500
_audit_creation_method            fapswitch 2.2
_symmetry_space_group_name_H-M    P1
_symmetry_Int_Tables_number       1
_space_group_crystal_system       triclinic
_cell_length_a                    11.057479
_cell_length_b                    11.024605
_cell_length_c                    18.758937
_cell_angle_alpha                 90.210183
_cell_angle_beta                  90.009618
_cell_angle_gamma                 60.170901
_cell_volume                      1983.80798646

loop_
_atom_site_label
_atom_site_type_symbol
_atom_site_description
_atom_site_fract_x
_atom_site_fract_y
_atom_site_fract_z
_atom_type_partial_charge
O1    O     O_R   0.507340 0.255690 0.581430 -0.488212
O2    O     O_R   0.280360 0.527380 0.578910 -0.450944
C1    C     C_R   0.235332 0.644612 0.609474 0.558251
O3    O     O_R   0.260600 0.739610 0.584580 -0.474101
O4    O     O_R   0.532370 0.695050 0.573830 -0.443025
C2    C     C_R   0.626285 0.587089 0.608607 0.542706
O5    O     O_R   0.744850 0.503430 0.576380 -0.486319
O6    O     O_R   0.699080 0.276500 0.571950 -0.529905
C3    C     C_R   0.631884 0.223555 0.600793 0.528704
O7    O     O_R   0.498860 0.256520 0.419860 -0.543076
O8    O     O_R   0.272490 0.528150 0.429140 -0.484505
C4    C     C_R   0.286214 0.622481 0.392631 0.545143
O9    O     O_R   0.252110 0.740440 0.423010 -0.476283
O10   O     O_R   0.524510 0.695820 0.424050 -0.536318
C5    C     C_R   0.646118 0.621238 0.392560 0.542836
O11   O     O_R   0.736370 0.504260 0.414810 -0.517529
O12   O     O_R   0.691220 0.277270 0.422180 -0.464207
C6    C     C_R   0.615689 0.226005 0.396084 0.580650
Cr1   Cr    Cr6+3 0.392940 0.397950 0.502230 1.104736
Cr2   Cr    Cr6+3 0.398400 0.708500 0.501260 1.090500
Cr3   Cr    Cr6+3 0.708640 0.393530 0.496460 1.062475
O13   O     O_3   0.499990 0.499990 0.499980 -0.335823
C7    C     C_3   0.517045 0.713914 0.805534 0.065289
H1    H     H_    0.493075 0.634678 0.828165 0.078883
C8    C     C_3   0.493480 0.714174 0.722617 0.104692
H2    H     H_    0.428334 0.664640 0.713920 0.067548
H3    H     H_    0.653274 0.847938 0.769552 0.199782
C9    C     C_3   0.727615 0.734614 0.766798 0.093340
C10   C     C_3   0.749267 0.500075 0.801967 -0.284599
C11   C     C_3   0.676505 0.659270 0.819574 0.001469
H4    H     H_    0.715620 0.446323 0.840644 0.101213
C12   C     C_3   0.638619 0.617746 0.684733 -0.045324
C13   C     C_3   0.733278 0.683107 0.690284 -0.177411
C14   C     C_3   0.711574 0.477934 0.725825 -0.314776
H5    H     H_    0.642373 0.431575 0.727772 0.108940
H6    H     H_    0.808818 0.404450 0.697977 0.191216
H7    H     H_    0.841281 0.601848 0.676895 0.216425
H8    H     H_    0.502328 0.132733 0.681504 0.214120
C15   C     C_R   0.699401 0.133020 0.818426 0.017759
C16   C     C_R   0.804372 0.145020 0.780786 0.033903
C17   C     C_R   0.801927 0.144354 0.704706 0.018925
C18   C     C_R   0.590522 0.130717 0.707096 -0.135858
C19   C     C_R   0.598318 0.120749 0.779168 -0.135942
C20   C     C_R   0.909635 0.159870 0.815509 -0.124926
C21   C     C_R   0.015470 0.162713 0.776574 -0.136349
C22   C     C_R   0.018527 0.151062 0.702694 -0.105041
C23   C     C_R   0.914525 0.139462 0.666962 -0.109272
C24   C     C_R   0.684233 0.152820 0.669144 -0.001925
H9    H     H_    0.909722 0.174849 0.872301 0.141420
H10   H     H_    0.523489 0.099887 0.803752 0.204842
H11   H     H_    0.095230 0.173858 0.804149 0.158249
H12   H     H_    0.099852 0.153696 0.672275 0.209525
H13   H     H_    0.925027 0.124485 0.609872 0.171839
H14   H     H_    0.099992 0.875077 0.686366 0.187966
C25   C     C_R   0.182676 0.673555 0.833626 0.041370
C26   C     C_R   0.229311 0.542327 0.801154 0.012091
C27   C     C_R   0.213727 0.534139 0.725677 0.038449
C28   C     C_R   0.138485 0.781445 0.717371 -0.092680
C29   C     C_R   0.146164 0.789834 0.790312 -0.050947
C30   C     C_R   0.270380 0.424173 0.843977 -0.094279
C31   C     C_R   0.275962 0.305592 0.816176 -0.155680
C32   C     C_R   0.250299 0.298372 0.744389 -0.117419
C33   C     C_R   0.214803 0.411535 0.698622 0.251572
C34   C     C_R   0.183448 0.654441 0.683373 0.008499
H15   H     H_    0.290974 0.425751 0.900317 0.111739
H16   H     H_    0.297837 0.219604 0.851249 0.173805
H17   H     H_    0.254014 0.204474 0.724805 0.184266
C35   C     C_R   0.662093 0.678001 0.171036 0.008908
C36   C     C_R   0.717505 0.543145 0.199365 0.020678
C37   C     C_R   0.751154 0.525139 0.272018 0.029412
C38   C     C_R   0.621567 0.776625 0.290786 -0.162009
C39   C     C_R   0.624400 0.792626 0.217250 -0.142052
C40   C     C_R   0.763416 0.424599 0.154761 -0.089876
C41   C     C_R   0.872381 0.296435 0.176342 -0.124579
C42   C     C_R   0.926897 0.282782 0.244315 -0.132843
C43   C     C_R   0.865207 0.393797 0.292618 -0.080832
C44   C     C_R   0.677151 0.643022 0.318848 0.005457
H18   H     H_    0.726377 0.434220 0.100462 0.116046
H19   H     H_    0.592009 0.895788 0.196327 0.149694
H20   H     H_    0.918300 0.209397 0.139345 0.131368
H21   H     H_    0.017727 0.186045 0.259459 0.168418
C45   C     C_R   0.658387 0.148878 0.178682 -0.045723
C46   C     C_R   0.526277 0.204757 0.210283 0.005411
C47   C     C_R   0.520302 0.185922 0.283571 -0.012911
C48   C     C_R   0.770906 0.095446 0.295645 0.170890
C49   C     C_R   0.779484 0.088298 0.221718 -0.138604
C50   C     C_R   0.401754 0.264622 0.169853 -0.075393
C51   C     C_R   0.279998 0.277610 0.198497 -0.128786
C52   C     C_R   0.277404 0.242796 0.269164 -0.152164
C53   C     C_R   0.396501 0.194293 0.310904 -0.089904
C54   C     C_R   0.639077 0.158053 0.326369 -0.003915
H22   H     H_    0.398904 0.296989 0.115193 0.127291
H23   H     H_    0.882044 0.030341 0.197863 0.187625
H24   H     H_    0.187557 0.314981 0.165871 0.120366
H25   H     H_    0.183873 0.251020 0.291796 0.108991
H26   H     H_    0.391466 0.156665 0.363317 0.156543
H27   H     H_    0.141097 0.518674 0.328463 0.154229
C55   C     C_R   0.178097 0.653044 0.174544 0.002935
C56   C     C_R   0.263149 0.707308 0.196669 0.024155
C57   C     C_R   0.281246 0.717631 0.270108 0.045178
C58   C     C_R   0.175616 0.572363 0.292738 -0.110335
C59   C     C_R   0.133564 0.587637 0.222771 -0.141431
C60   C     C_R   0.309274 0.773102 0.147761 -0.090149
C61   C     C_R   0.328092 0.882013 0.170584 -0.107406
C62   C     C_R   0.324624 0.908784 0.242921 -0.119662
C63   C     C_R   0.315921 0.819513 0.292199 -0.045462
C64   C     C_R   0.248822 0.637147 0.317621 0.030602
H28   H     H_    0.314336 0.752201 0.091035 0.135034
H29   H     H_    0.060469 0.553907 0.207219 0.141846
H30   H     H_    0.347949 0.943752 0.132579 0.135096
H31   H     H_    0.343265 0.989988 0.261360 0.117244
H32   H     H_    0.326459 0.842294 0.346565 0.174676
O14   O     O_R   0.089570 0.825450 0.930590 -0.495190
O15   O     O_R   0.818700 0.054260 0.929860 -0.503396
C65   C     C_R   0.704825 0.097243 0.894525 0.551349
O16   O     O_R   0.606310 0.077010 0.915520 -0.515592
O17   O     O_R   0.646730 0.806540 0.917560 -0.437772
C66   C     C_R   0.714062 0.681426 0.893203 0.586963
O18   O     O_R   0.837290 0.593240 0.915240 -0.486499
O19   O     O_R   0.065320 0.635310 0.931580 -0.463652
C67   C     C_R   0.120711 0.705698 0.906182 0.588308
O20   O     O_R   0.068470 0.828620 0.091850 -0.522957
O21   O     O_R   0.799150 0.057200 0.079350 -0.523980
C68   C     C_R   0.676687 0.105048 0.104513 0.521880
O22   O     O_R   0.585220 0.080180 0.076770 -0.529982
O23   O     O_R   0.627170 0.809480 0.067050 -0.512455
C69   C     C_R   0.697014 0.691573 0.097895 0.522797
O24   O     O_R   0.816200 0.596410 0.076500 -0.530614
O25   O     O_R   0.045770 0.638240 0.081070 -0.523708
C70   C     C_R   0.098511 0.705924 0.110063 0.528654
Cr4   Cr    Cr6+3 0.937880 0.938320 0.007620 1.031676
Cr5   Cr    Cr6+3 0.625560 0.937220 0.994510 1.073483
Cr6   Cr    Cr6+3 0.938080 0.625010 0.001190 1.038858
O26   O     O_3   0.833840 0.833520 0.001110 -0.250455
N1    N     N_R   0.420876 0.845909 0.841430 0.087444
O27   O     O_R   0.344942 0.845420 0.894279 -0.381055
O28   O     O_R   0.415626 0.962427 0.824851 -0.366268
N2    N     N_R   0.862869 0.715391 0.785943 0.061924
O29   O     O_R   0.875157 0.822582 0.803811 -0.369589
O30   O     O_R   0.967190 0.590056 0.793060 -0.363280
H33   H     H_    0.109692 0.891983 0.813144 0.195718
N3    N     N_R   0.157039 0.407231 0.630470 0.084520
O31   O     O_R   0.049050 0.517746 0.605175 -0.340348
O32   O     O_R   0.204957 0.289413 0.596041 -0.343233
H34   H     H_    0.576201 0.867594 0.325370 0.124164
H35   H     H_    0.917786 0.377424 0.343077 0.161450
N4    N     N_R   0.894901 0.027629 0.338780 0.082183
O33   O     O_R   0.888968 0.990743 0.403955 -0.312168
O34   O     O_R   0.016681 0.981695 0.309894 -0.381583
N5    N     N_R   0.418578 0.856382 0.692219 0.134141
O35   O     O_R   0.292804 0.906644 0.668909 -0.356356
O36   O     O_R   0.476962 0.931973 0.683330 -0.387761
H36   H     H_    0.706862 0.768079 0.651233 0.182941
H37   H     H_    0.864044 0.448740 0.806755 0.212922

loop_
_geom_bond_atom_site_label_1
_geom_bond_atom_site_label_2
_geom_bond_distance
_ccdc_geom_bond_type
C20   H9    1.077564 S    
C58   C64   1.398505 A    
C46   C50   1.416322 A    
C50   C51   1.389124 A    
C25   C67   1.484175 S    
O23   C69   1.275774 A    
C25   C29   1.399724 A    
O15   Cr4   1.958455 S    
C2    C12   1.488084 S    
N4    O33   1.301791 A    
C25   C26   1.407655 A    
Cr4   O26   1.998621 S    
O15   C65   1.287574 A    
C48   C54   1.389210 A    
N1    O27   1.301025 A    
O4    Cr2   1.962642 S    
C63   H32   1.069568 S    
C21   C22   1.390246 A    
C20   C21   1.393165 A    
C10   H37   1.106733 S    
O8    Cr1   1.956041 S    
O18   Cr6   2.085171 S    
C32   H17   1.078511 S    
C6    C54   1.462381 S    
N4    O34   1.297377 A    
O19   Cr6   1.964227 S    
C39   H19   1.083428 S    
C48   C49   1.389320 A    
O4    C2    1.302502 A    
C13   H36   1.110075 S    
C21   H11   1.080591 S    
C65   O16   1.278284 A    
C22   H12   1.077674 S    
C26   C27   1.434204 A    
C14   H5    1.112327 S    
C40   C41   1.386529 A    
O17   Cr5   1.965565 S    
C66   O18   1.287488 A    
C31   H16   1.080027 S    
C17   C24   1.423627 A    
C56   C57   1.404397 A    
C35   C36   1.402727 A    
C40   H18   1.083488 S    
C36   C40   1.413500 A    
C60   H28   1.083501 S    
C47   C54   1.436616 A    
C10   C11   1.558120 S    
C35   C39   1.410785 A    
C23   H13   1.080450 S    
C8    C12   1.583776 S    
C62   H31   1.069990 S    
C43   H35   1.078537 S    
C41   H20   1.082019 S    
Cr3   O13   2.002606 S    
C37   C44   1.436740 A    
C31   C32   1.386310 A    
C47   C53   1.421116 A    
C45   C68   1.451928 S    
C61   C62   1.384112 A    
C17   C23   1.409814 A    
C27   C33   1.436559 A    
C28   C34   1.383987 A    
C51   H24   1.082506 S    
O1    Cr1   2.076061 S    
C41   C42   1.386651 A    
C58   C59   1.375057 A    
O10   Cr2   1.966497 S    
O21   C68   1.273781 A    
Cr1   O13   1.998383 S    
C9    N2    1.447645 S    
C56   C60   1.414593 A    
C15   C16   1.420217 A    
C42   H21   1.078593 S    
C15   C19   1.399793 A    
C11   C66   1.496024 S    
C28   C29   1.376519 A    
C45   C49   1.415872 A    
O11   Cr3   2.077622 S    
C10   C14   1.540110 S    
O12   Cr3   1.963142 S    
C26   C30   1.402633 A    
C30   C31   1.378253 A    
C12   C14   1.546706 S    
C52   H25   1.079183 S    
C42   C43   1.394930 A    
C7    C11   1.576553 S    
C32   C33   1.402934 A    
C49   H23   1.082499 S    
C55   C59   1.392508 A    
C46   C47   1.397623 A    
O16   Cr5   2.075171 S    
O23   Cr5   1.955604 S    
O7    Cr1   2.087258 S    
C7    H1    1.116526 S    
C55   C70   1.439395 S    
O12   C6    1.313016 A    
O6    C3    1.272569 A    
O1    C3    1.292045 A    
N5    O36   1.294350 A    
C18   C24   1.375750 A    
C4    O9    1.290306 A    
C35   C69   1.453676 S    
N2    O30   1.293587 A    
O25   Cr6   1.963468 S    
C16   C17   1.427500 A    
C38   H34   1.083146 S    
Cr2   O13   1.994333 S    
C9    C13   1.531404 S    
C55   C56   1.404403 A    
C15   C65   1.475668 S    
C37   C43   1.422585 A    
Cr6   O26   1.994215 S    
N3    O32   1.301650 A    
C18   C19   1.356095 A    
C69   O24   1.272876 A    
O20   Cr4   2.078533 S    
C38   C44   1.388999 A    
C50   H22   1.082212 S    
O19   C67   1.296133 A    
C27   C34   1.437630 A    
O25   C70   1.273794 A    
H14   C28   1.073431 S    
N1    O28   1.295751 A    
C22   C23   1.390523 A    
C57   C64   1.425709 A    
O14   Cr4   2.088314 S    
O9    Cr2   2.081261 S    
O21   Cr4   1.967006 S    
O2    Cr1   1.968061 S    
N5    O35   1.291252 A    
C48   N4    1.441481 S    
O6    Cr3   1.957124 S    
C30   H15   1.083005 S    
C4    C64   1.453277 S    
O8    C4    1.317518 A    
C19   H10   1.067904 S    
C53   H26   1.080683 S    
C2    O5    1.314605 A    
C62   C63   1.390429 A    
C57   C63   1.416075 A    
C7    N1    1.468137 S    
C12   C13   1.541213 S    
C9    C11   1.569299 S    
O2    C1    1.265501 A    
C8    H2    1.111022 S    
C38   C39   1.393653 A    
C10   H4    1.112909 S    
O5    Cr3   2.084471 S    
O24   Cr6   2.082819 S    
C61   H30   1.082607 S    
O22   Cr5   2.084987 S    
C5    C44   1.473788 S    
O7    C6    1.244062 A    
C5    O11   1.247699 A    
C33   N3    1.440164 S    
C14   H6    1.102678 S    
C7    C8    1.576861 S    
C1    C34   1.483225 S    
C36   C37   1.401301 A    
C13   H7    1.107237 S    
N2    O29   1.297741 A    
O3    Cr2   2.087889 S    
H8    C18   1.077193 S    
C16   C20   1.412227 A    
O14   C67   1.270646 A    
C51   C52   1.385703 A    
C29   H33   1.076577 S    
C3    C24   1.464655 S    
Cr5   O26   2.001997 S    
C45   C46   1.402579 A    
C60   C61   1.383126 A    
N3    O31   1.300835 A    
O10   C5    1.315279 A    
C8    N5    1.477744 S    
C59   H29   1.083868 S    
C52   C53   1.391207 A    
O17   C66   1.280435 A    
O20   C70   1.270096 A    
H27   C58   1.083007 S    
C1    O3    1.299134 A    
C68   O22   1.282021 A    
H3    C9    1.103241 S    
