data_mof_unit_pretest_1932.cif
_audit_creation_date              2012-12-10T19:00:38-0500
_audit_creation_method            fapswitch 2.2
_symmetry_space_group_name_H-M    P1
_symmetry_Int_Tables_number       1
_space_group_crystal_system       triclinic
_cell_length_a                    36.993192
_cell_length_b                    30.282933
_cell_length_c                    21.300422
_cell_angle_alpha                 90.002516
_cell_angle_beta                  54.911274
_cell_angle_gamma                 89.990427
_cell_volume                      19525.437275

loop_
_atom_site_label
_atom_site_type_symbol
_atom_type_description
_atom_site_fract_x
_atom_site_fract_y
_atom_site_fract_z
_atom_type_partial_charge
C1    C     C_R   0.913727 0.500020 0.086286 0.861977
C2    C     C_R   0.086273 0.500011 0.913716 0.862009
C3    C     C_R   0.413727 0.000020 0.086287 0.861968
C4    C     C_R   0.586273 0.000011 0.913715 0.862079
C5    C     C_3   0.965589 0.475736 0.263590 -0.231523
C6    C     C_3   0.034125 0.475308 0.736690 -0.231791
C7    C     C_3   0.463708 0.978690 0.265454 -0.232099
C8    C     C_3   0.534807 0.976282 0.736013 -0.233609
C9    C     C_3   0.004053 0.459833 0.266160 0.495604
C10   C     C_3   0.995473 0.459880 0.734309 0.495607
C11   C     C_3   0.500693 0.959644 0.269519 0.495418
C12   C     C_3   0.496609 0.959773 0.733174 0.495390
C13   C     C_3   0.038473 0.483162 0.190822 -0.229675
C14   C     C_3   0.961334 0.483630 0.809371 -0.229469
C15   C     C_3   0.536958 0.980026 0.192353 -0.228950
C16   C     C_3   0.461811 0.982554 0.808893 -0.227898
C17   C     C_3   0.999914 0.500177 0.189218 -0.044482
C18   C     C_3   0.000094 0.500170 0.810775 -0.044491
C19   C     C_3   0.499958 0.000188 0.189176 -0.044390
C20   C     C_3   0.500088 0.000177 0.810781 -0.044305
C21   C     C_R   0.796886 0.538045 0.184880 -0.176789
C22   C     C_R   0.203105 0.538002 0.815141 -0.176771
C23   C     C_R   0.296886 0.038056 0.184916 -0.176565
C24   C     C_R   0.703105 0.038015 0.815099 -0.176660
C25   C     C_R   0.842686 0.538131 0.139373 -0.191068
C26   C     C_R   0.157306 0.538100 0.860643 -0.191049
C27   C     C_R   0.342686 0.038142 0.139411 -0.190810
C28   C     C_R   0.657306 0.038112 0.860598 -0.190915
C29   C     C_R   0.865763 0.500043 0.134325 -0.030233
C30   C     C_R   0.134237 0.500016 0.865685 -0.030218
C31   C     C_R   0.365762 0.000044 0.134323 -0.030191
C32   C     C_R   0.634238 0.000016 0.865687 -0.029973
C33   C     C_R   0.842725 0.461981 0.175485 -0.192827
C34   C     C_R   0.157284 0.461945 0.824524 -0.192820
C35   C     C_R   0.342723 0.961972 0.175442 -0.192975
C36   C     C_R   0.657286 0.961934 0.824576 -0.192963
C37   C     C_R   0.796925 0.462110 0.221722 -0.174831
C38   C     C_R   0.203084 0.462062 0.778291 -0.174841
C39   C     C_R   0.296923 0.962102 0.221674 -0.174783
C40   C     C_R   0.703087 0.962052 0.778348 -0.174941
C41   C     C_R   0.773997 0.500086 0.226235 0.109757
C42   C     C_R   0.226004 0.500035 0.773784 0.109743
C43   C     C_R   0.273995 0.000088 0.226227 0.109911
C44   C     C_R   0.726005 0.000037 0.773793 0.109941
C45   C     C_R   0.999969 0.500040 0.121680 0.894837
C46   C     C_R   0.000035 0.500038 0.878315 0.894828
C47   C     C_R   0.499996 0.000042 0.121654 0.894896
C48   C     C_R   0.500031 0.000039 0.878320 0.894847
C49   C     C_R   0.703173 0.487569 0.351207 -0.174953
C50   C     C_R   0.296834 0.487513 0.648805 -0.174919
C51   C     C_R   0.203172 0.987522 0.351179 -0.174749
C52   C     C_R   0.796835 0.987464 0.648835 -0.174803
C53   C     C_R   0.657370 0.487796 0.397105 -0.189311
C54   C     C_R   0.342636 0.487759 0.602898 -0.189298
C55   C     C_R   0.157369 0.987749 0.397079 -0.187870
C56   C     C_R   0.842637 0.987710 0.602926 -0.187924
C57   C     C_R   0.634283 0.500026 0.365814 -0.032004
C58   C     C_R   0.365717 0.500006 0.634190 -0.032004
C59   C     C_R   0.134282 0.000030 0.365813 -0.031269
C60   C     C_R   0.865719 0.000010 0.634191 -0.031221
C61   C     C_R   0.657325 0.512290 0.288453 -0.188915
C62   C     C_R   0.342669 0.512265 0.711561 -0.188887
C63   C     C_R   0.157321 0.012347 0.288477 -0.190340
C64   C     C_R   0.842673 0.012324 0.711536 -0.190382
C65   C     C_R   0.703124 0.512574 0.242857 -0.175063
C66   C     C_R   0.296870 0.512530 0.757165 -0.175057
C67   C     C_R   0.203120 0.012630 0.242879 -0.174882
C68   C     C_R   0.796874 0.012588 0.757143 -0.174977
C69   C     C_R   0.726057 0.500085 0.274149 0.109961
C70   C     C_R   0.273943 0.500028 0.725871 0.109961
C71   C     C_R   0.226055 0.000088 0.274143 0.110153
C72   C     C_R   0.773945 0.000032 0.725877 0.110205
C73   C     C_R   0.000014 0.365733 0.499994 -0.020982
C74   C     C_R   0.500013 0.865732 0.499980 -0.017299
C75   C     C_R   0.000026 0.273982 0.499992 0.106085
C76   C     C_R   0.500021 0.773982 0.499970 0.106541
C77   C     C_R   0.499963 0.274120 0.500028 0.077225
C78   C     C_R   0.999964 0.774120 0.500027 0.077220
C79   C     C_R   0.999995 0.586308 0.500004 0.909594
C80   C     C_R   0.499995 0.086308 0.500004 0.909601
C81   C     C_R   0.037968 0.342678 0.443455 -0.164423
C82   C     C_R   0.962066 0.342688 0.556533 -0.164063
C83   C     C_R   0.462028 0.842686 0.519397 -0.163764
C84   C     C_R   0.538002 0.842676 0.480553 -0.166640
C85   C     C_R   0.999967 0.500170 0.378391 0.921358
C86   C     C_R   0.000035 0.500168 0.621608 0.921251
C87   C     C_R   0.499976 0.000178 0.378383 0.921608
C88   C     C_R   0.500032 0.000170 0.621610 0.921340
C89   C     C_R   0.000005 0.413683 0.499997 0.916179
C90   C     C_R   0.500004 0.913683 0.499994 0.916392
C91   C     C_R   0.500007 0.634275 0.499994 -0.032332
C92   C     C_R   0.000010 0.134274 0.499996 -0.030985
C93   C     C_R   0.500001 0.586300 0.500000 0.868682
C94   C     C_R   0.000001 0.086300 0.500000 0.868618
C95   C     C_R   0.586307 0.499997 0.413720 0.869758
C96   C     C_R   0.413693 0.499995 0.586280 0.869766
C97   C     C_R   0.086307 0.999999 0.413720 0.869685
C98   C     C_R   0.913693 0.999996 0.586280 0.869654
C99   C     C_R   0.512099 0.657340 0.542338 -0.190837
C100  C     C_R   0.487924 0.657343 0.457636 -0.190808
C101  C     C_R   0.987969 0.157343 0.566457 -0.190930
C102  C     C_R   0.012062 0.157335 0.433529 -0.190937
C103  C     C_R   0.499998 0.413665 0.500001 0.873443
C104  C     C_R   0.999998 0.913665 0.500001 0.873331
C105  C     C_R   0.959277 0.703153 0.540760 0.437729
C106  C     C_R   0.040670 0.703148 0.459271 0.437729
C107  C     C_R   0.459277 0.203153 0.540767 0.437761
C108  C     C_R   0.540670 0.203148 0.459268 0.437691
C109  C     C_R   0.959931 0.657374 0.540109 -0.194606
C110  C     C_R   0.040032 0.657369 0.459915 -0.194529
C111  C     C_R   0.459931 0.157374 0.540113 -0.194723
C112  C     C_R   0.540032 0.157370 0.459914 -0.194423
C113  C     C_R   0.999985 0.634372 0.500011 -0.228871
C114  C     C_R   0.499985 0.134372 0.500011 -0.228834
C115  C     C_R   0.512362 0.703129 0.541926 -0.174000
C116  C     C_R   0.487678 0.703131 0.458024 -0.174065
C117  C     C_R   0.987727 0.203131 0.566560 -0.173958
C118  C     C_R   0.012323 0.203124 0.433419 -0.173921
C119  C     C_R   0.999970 0.726326 0.500018 -0.160109
C120  C     C_R   0.499970 0.226327 0.500019 -0.160110
C121  C     C_R   0.500118 0.296755 0.556929 -0.161398
C122  C     C_R   0.499817 0.296754 0.443120 -0.161448
C123  C     C_R   0.000075 0.796755 0.556972 -0.161398
C124  C     C_R   0.999861 0.796754 0.443076 -0.161452
C125  C     C_R   0.500129 0.342522 0.556989 -0.193272
C126  C     C_R   0.499829 0.342522 0.443042 -0.193272
C127  C     C_R   0.000086 0.842522 0.557032 -0.193278
C128  C     C_R   0.999872 0.842522 0.442999 -0.193275
C129  C     C_R   0.499986 0.365642 0.500010 -0.036594
C130  C     C_R   0.999986 0.865642 0.500009 -0.036581
C131  C     C_R   0.500023 0.726041 0.499970 0.110911
C132  C     C_R   0.000029 0.226040 0.499988 0.111238
C133  C     C_R   0.037865 0.296890 0.443200 -0.174014
C134  C     C_R   0.962181 0.296901 0.556785 -0.174052
C135  C     C_R   0.462142 0.796899 0.518917 -0.173535
C136  C     C_R   0.537897 0.796889 0.481025 -0.173347
C137  C     C_3   0.995620 0.542153 0.233449 -0.142910
C138  C     C_3   0.004882 0.542090 0.766055 -0.142853
C139  C     C_3   0.499166 0.042377 0.229911 -0.143118
C140  C     C_3   0.503697 0.042216 0.767237 -0.142818
C141  C     C_3   0.033994 0.525101 0.236559 -0.223908
C142  C     C_3   0.966309 0.525512 0.763142 -0.223809
C143  C     C_3   0.535986 0.022180 0.234570 -0.224505
C144  C     C_3   0.465604 0.024556 0.763849 -0.223937
C145  C     C_3   0.999861 0.500718 0.311032 -0.007451
C146  C     C_3   0.000148 0.500710 0.688960 -0.007428
C147  C     C_3   0.499923 0.000737 0.310972 -0.007502
C148  C     C_3   0.500131 0.000719 0.688976 -0.007473
C149  C     C_3   0.961476 0.517682 0.308930 -0.223353
C150  C     C_3   0.038734 0.517200 0.690863 -0.223423
C151  C     C_3   0.463100 0.020846 0.307310 -0.222816
C152  C     C_3   0.538234 0.018290 0.691357 -0.223474
H1    H     H_    0.061612 0.545394 0.227516 0.158683
H2    H     H_    0.938934 0.546142 0.771942 0.158448
H3    H     H_    0.565204 0.040117 0.223888 0.160209
H4    H     H_    0.437656 0.044413 0.773238 0.158988
H5    H     H_    0.779351 0.432552 0.253311 0.136265
H6    H     H_    0.220667 0.432498 0.746698 0.136265
H7    H     H_    0.279348 0.932535 0.253228 0.136133
H8    H     H_    0.720670 0.932478 0.746795 0.136075
H9    H     H_    0.720783 0.478094 0.375816 0.134408
H10   H     H_    0.279228 0.478029 0.624195 0.134403
H11   H     H_    0.220782 0.978008 0.375768 0.134346
H12   H     H_    0.779228 0.977940 0.624245 0.134264
H13   H     H_    0.640077 0.478075 0.456689 0.155029
H14   H     H_    0.359935 0.478040 0.543308 0.155026
H15   H     H_    0.140076 0.977987 0.456644 0.155089
H16   H     H_    0.859935 0.977948 0.543355 0.155050
H17   H     H_    0.639999 0.521989 0.263445 0.155519
H18   H     H_    0.359989 0.521975 0.736571 0.155525
H19   H     H_    0.139993 0.022088 0.263493 0.154237
H20   H     H_    0.859996 0.022078 0.736521 0.154207
H21   H     H_    0.720695 0.522060 0.183101 0.134603
H22   H     H_    0.279294 0.522016 0.816926 0.134608
H23   H     H_    0.220690 0.022156 0.183141 0.134301
H24   H     H_    0.779300 0.022116 0.816885 0.134233
H25   H     H_    0.067497 0.359991 0.399183 0.159109
H26   H     H_    0.932532 0.360009 0.600806 0.159249
H27   H     H_    0.432466 0.860006 0.534238 0.157354
H28   H     H_    0.567561 0.859990 0.465716 0.156721
H29   H     H_    0.521715 0.720707 0.574851 0.136942
H30   H     H_    0.478328 0.720710 0.425092 0.137008
H31   H     H_    0.978412 0.220711 0.618142 0.136894
H32   H     H_    0.021642 0.220698 0.381835 0.136900
H33   H     H_    0.521679 0.640040 0.575151 0.155676
H34   H     H_    0.478338 0.640045 0.424831 0.155693
H35   H     H_    0.978414 0.140047 0.618384 0.154601
H36   H     H_    0.021611 0.140033 0.381605 0.154607
H37   H     H_    0.928744 0.639813 0.571335 0.193414
H38   H     H_    0.071225 0.639805 0.428686 0.193436
H39   H     H_    0.428744 0.139813 0.571341 0.193410
H40   H     H_    0.571225 0.139805 0.428682 0.193411
H41   H     H_    0.992109 0.576217 0.218340 0.157169
H42   H     H_    0.008800 0.576106 0.780766 0.157137
H43   H     H_    0.498531 0.076618 0.211943 0.157258
H44   H     H_    0.506652 0.076332 0.782899 0.157190
H45   H     H_    0.067342 0.279310 0.399330 0.135237
H46   H     H_    0.932708 0.279330 0.600652 0.135257
H47   H     H_    0.432643 0.779326 0.534035 0.135082
H48   H     H_    0.567399 0.779308 0.465905 0.134942
H49   H     H_    0.500234 0.278948 0.600934 0.146238
H50   H     H_    0.499697 0.278947 0.399118 0.146237
H51   H     H_    0.000158 0.778947 0.601009 0.146245
H52   H     H_    0.999774 0.778947 0.399040 0.146248
H53   H     H_    0.500255 0.359705 0.601454 0.159353
H54   H     H_    0.499712 0.359704 0.398570 0.159350
H55   H     H_    0.000177 0.859704 0.601532 0.159364
H56   H     H_    0.999790 0.859704 0.398491 0.159363
H57   H     H_    0.930293 0.532002 0.358469 0.162436
H58   H     H_    0.070085 0.531136 0.641163 0.162626
H59   H     H_    0.433226 0.037702 0.355587 0.161064
H60   H     H_    0.569177 0.033097 0.642047 0.162096
H61   H     H_    0.938172 0.455100 0.272596 0.145225
H62   H     H_    0.061297 0.454336 0.727921 0.145459
H63   H     H_    0.434673 0.960412 0.276048 0.143126
H64   H     H_    0.562557 0.956082 0.726671 0.144294
H65   H     H_    0.069500 0.468500 0.141454 0.143363
H66   H     H_    0.930137 0.469352 0.858912 0.143171
H67   H     H_    0.566660 0.962826 0.144331 0.145308
H68   H     H_    0.431027 0.967404 0.858017 0.144154
H69   H     H_    0.779280 0.567615 0.188502 0.134717
H70   H     H_    0.220703 0.567570 0.811523 0.134753
H71   H     H_    0.279282 0.067635 0.188570 0.134507
H72   H     H_    0.720702 0.067593 0.811443 0.134479
H73   H     H_    0.859988 0.567757 0.107712 0.155146
H74   H     H_    0.139998 0.567733 0.892304 0.155159
H75   H     H_    0.359988 0.067776 0.107785 0.155079
H76   H     H_    0.639997 0.067755 0.892219 0.154976
H77   H     H_    0.860058 0.432339 0.172460 0.155200
H78   H     H_    0.139957 0.432306 0.827546 0.155185
H79   H     H_    0.360055 0.932322 0.172386 0.155095
H80   H     H_    0.639961 0.932286 0.827634 0.155007
O1    O     O_R   0.934530 0.463050 0.065470 -0.626741
O2    O     O_R   0.065470 0.463050 0.934530 -0.626750
O3    O     O_R   0.434530 0.963050 0.065470 -0.626706
O4    O     O_R   0.565470 0.963050 0.934530 -0.626766
O5    O     O_R   0.565480 0.500000 0.487030 -0.625898
O6    O     O_R   0.434520 0.500000 0.512970 -0.625891
O7    O     O_R   0.065480 0.000000 0.487030 -0.623895
O8    O     O_R   0.934520 1.000000 0.512970 -0.623908
O9    O     O_R   0.565480 0.499990 0.382000 -0.623717
O10   O     O_R   0.434520 0.499990 0.618000 -0.623717
O11   O     O_R   0.065480 0.999990 0.382000 -0.625575
O12   O     O_R   0.934520 0.999990 0.618000 -0.625592
O13   O     O_R   0.500000 0.434520 0.552520 -0.626094
O14   O     O_R   0.500000 0.434520 0.447480 -0.626098
O15   O     O_R   0.000000 0.934520 0.552520 -0.626120
O16   O     O_R   0.000000 0.934520 0.447480 -0.626123
O17   O     O_R   0.934550 0.536970 0.065450 -0.625816
O18   O     O_R   0.065450 0.536970 0.934550 -0.625859
O19   O     O_R   0.434550 0.036970 0.065450 -0.625672
O20   O     O_R   0.565450 0.036970 0.934550 -0.625977
O21   O     O_R   0.000010 0.463050 0.093020 -0.629107
O22   O     O_R   0.999990 0.463050 0.906980 -0.629109
O23   O     O_R   0.500010 0.963050 0.093020 -0.629099
O24   O     O_R   0.499990 0.963050 0.906980 -0.629080
O25   O     O_R   0.000020 0.536970 0.093000 -0.625611
O26   O     O_R   0.999980 0.536970 0.907000 -0.625587
O27   O     O_R   0.500020 0.036970 0.093000 -0.625706
O28   O     O_R   0.499980 0.036970 0.907000 -0.625670
O29   O     O_R   0.036960 0.565440 0.463030 -0.632458
O30   O     O_R   0.963040 0.565440 0.536970 -0.632548
O31   O     O_R   0.536960 0.065440 0.463030 -0.632325
O32   O     O_R   0.463040 0.065440 0.536970 -0.632753
O33   O     O_R   0.036960 0.499960 0.370010 -0.623186
O34   O     O_R   0.963040 0.499960 0.629990 -0.622705
O35   O     O_R   0.536960 0.999960 0.370010 -0.624102
O36   O     O_R   0.463040 0.999960 0.629990 -0.621522
O37   O     O_R   0.963040 0.499940 0.443930 -0.628894
O38   O     O_R   0.036960 0.499940 0.556070 -0.629278
O39   O     O_R   0.463040 0.999940 0.443930 -0.628380
O40   O     O_R   0.536960 0.999940 0.556070 -0.630649
O41   O     O_R   0.036980 0.434490 0.463020 -0.621818
O42   O     O_R   0.963020 0.434490 0.536980 -0.621506
O43   O     O_R   0.536980 0.934490 0.463020 -0.622410
O44   O     O_R   0.463020 0.934490 0.536980 -0.620671
O45   O     O_R   0.500030 0.565470 0.552480 -0.625059
O46   O     O_R   0.499970 0.565470 0.447520 -0.625070
O47   O     O_R   0.000030 0.065470 0.552480 -0.624948
O48   O     O_R   0.999970 0.065470 0.447520 -0.624948
Zn1   Zn    Zn3+2 0.000000 0.450650 0.000000 0.944240
Zn2   Zn    Zn3+2 0.500000 0.950650 0.000000 0.944287
Zn3   Zn    Zn3+2 0.000000 0.549370 0.000000 0.944838
Zn4   Zn    Zn3+2 0.500000 0.049370 0.000000 0.944780
Zn5   Zn    Zn3+2 0.049370 0.499970 0.450630 0.967695
Zn6   Zn    Zn3+2 0.950630 0.499970 0.549370 0.968201
Zn7   Zn    Zn3+2 0.549370 0.999970 0.450630 0.966451
Zn8   Zn    Zn3+2 0.450630 0.999970 0.549370 0.969450
Zn9   Zn    Zn3+2 0.500010 0.500000 0.570110 0.947998
Zn10  Zn    Zn3+2 0.499990 0.500000 0.429890 0.947993
Zn11  Zn    Zn3+2 0.000010 0.000000 0.570110 0.948207
Zn12  Zn    Zn3+2 0.999990 1.000000 0.429890 0.948211
O49   O     O_3   0.918286 0.723387 0.581801 -0.766325
H81   H     H_    0.921481 0.755853 0.578609 0.347106
O50   O     O_3   0.081656 0.723375 0.418234 -0.766284
H82   H     H_    0.078451 0.755842 0.421420 0.347134
O51   O     O_3   0.418285 0.223387 0.581817 -0.766289
H83   H     H_    0.421481 0.255853 0.578652 0.347116
O52   O     O_3   0.581655 0.223375 0.418221 -0.766328
H84   H     H_    0.578451 0.255842 0.421382 0.347127
O53   O     O_3   0.008414 0.417178 0.286112 -0.780268
H85   H     H_    0.010411 0.397554 0.246986 0.328845
O54   O     O_3   0.990606 0.417281 0.714855 -0.780266
H86   H     H_    0.988381 0.397683 0.754207 0.328821
O55   O     O_3   0.501477 0.916776 0.293047 -0.779950
H87   H     H_    0.501818 0.897053 0.255574 0.328979
O56   O     O_3   0.492949 0.917053 0.712520 -0.779268
H88   H     H_    0.491307 0.897399 0.751291 0.329077

loop_
_geom_bond_atom_site_label_1
_geom_bond_atom_site_label_2
_ccdc_geom_bond_type
C111  H39   S    
C55   C59   A    
O41   Zn5   S    
C142  C146  S    
C74   C83   A    
O43   Zn7   S    
C28   H76   S    
C68   H24   S    
O53   H85   S    
C21   H69   S    
C16   C20   S    
C16   C144  S    
C60   C98   S    
C135  H47   S    
C76   C131  S    
C29   C33   A    
C23   C43   A    
C84   H28   S    
C117  C132  A    
C108  C120  A    
C77   C122  A    
C3    O3    A    
C146  C150  S    
C11   C15   S    
C12   C16   S    
C1    O1    A    
C100  C116  A    
C133  H45   S    
O26   Zn3   S    
C91   C100  A    
C140  C152  S    
C98   O12   A    
C141  C145  S    
C49   C69   A    
O36   Zn8   S    
C89   O41   A    
C80   O31   A    
C51   C71   A    
C73   C81   A    
O28   Zn4   S    
O21   Zn1   S    
O29   Zn5   S    
C25   C29   A    
C62   H18   S    
O31   Zn7   S    
O16   Zn12  S    
C27   C31   A    
C103  O14   A    
C28   C32   A    
C4    O20   A    
C62   C66   A    
C88   O36   A    
O10   Zn9   S    
C126  C129  A    
O13   Zn9   S    
C110  H38   S    
C82   C134  A    
C52   C72   A    
O54   H86   S    
C36   H80   S    
C104  O15   A    
C5    H61   S    
C82   H26   S    
C1    C29   S    
C88   C148  S    
C3    C31   S    
C4    C32   S    
C95   O9    A    
C143  C147  S    
C7    C19   S    
C61   H17   S    
C86   O34   A    
C107  C120  A    
C99   H33   S    
C41   C69   S    
C48   O28   A    
C43   C71   S    
C149  H57   S    
C8    H64   S    
C57   C61   A    
C59   C63   A    
C123  H51   S    
C60   C64   A    
C74   C90   S    
C50   C70   A    
C121  H49   S    
O5    Zn9   S    
C27   H75   S    
C66   C70   A    
C49   C53   A    
C25   H73   S    
C44   C72   S    
C51   C55   A    
C136  H48   S    
C94   O48   A    
C61   C65   A    
C5    C17   S    
C19   C139  S    
C79   O30   A    
C66   H22   S    
C17   C137  S    
C128  H56   S    
C46   O26   A    
O1    Zn1   S    
C14   C142  S    
C50   H10   S    
O18   Zn3   S    
C106  O50   S    
C112  C114  A    
C75   C134  A    
C5    C149  S    
O39   Zn8   S    
C121  C125  A    
C103  O13   A    
C150  H58   S    
C8    C152  S    
C3    O19   A    
C1    O17   A    
O45   Zn9   S    
C42   C70   S    
C95   O5    A    
C37   H5    S    
C9    C13   S    
C143  H3    S    
C116  H30   S    
O42   Zn6   S    
C49   H9    S    
O33   Zn5   S    
O35   Zn7   S    
C4    O4    A    
C33   H77   S    
C76   C135  A    
C97   O7    A    
C30   C34   A    
O32   Zn8   S    
O37   Zn6   S    
O4    Zn2   S    
C10   C14   S    
C47   O27   A    
C144  H4    S    
C147  C151  S    
C63   C67   A    
C5    C9    S    
O49   H81   S    
C125  C129  A    
O12   Zn11  S    
C123  C127  A    
C8    C12   S    
C142  H2    S    
C78   C123  A    
C10   C146  S    
C15   C143  S    
O30   Zn6   S    
C23   H71   S    
C26   C30   A    
C79   C113  S    
C15   H67   S    
C75   C132  S    
C108  O52   S    
C21   C25   A    
O14   Zn10  S    
C107  C111  A    
C14   H66   S    
C24   C28   A    
C74   C84   A    
C90   O44   A    
C32   C36   A    
C81   C133  A    
C92   C102  A    
C83   H27   S    
C2    C30   S    
C81   H25   S    
C141  H1    S    
C139  C151  S    
C16   H68   S    
C37   C41   A    
C7    H63   S    
C77   C121  A    
C40   C44   A    
O7    Zn11  S    
C19   C47   S    
O15   Zn11  S    
O25   Zn3   S    
C91   C99   A    
C101  H35   S    
C87   O35   A    
C58   C62   A    
C11   O55   S    
C106  C119  A    
C80   O32   A    
C55   H15   S    
C77   C120  S    
O6    Zn10  S    
O40   Zn7   S    
C15   C19   S    
C22   H70   S    
C50   C54   A    
C87   C147  S    
O27   Zn4   S    
C105  O49   S    
C99   C115  A    
C98   O8    A    
C86   C146  S    
C85   O37   A    
C18   C138  S    
C105  C109  A    
C2    O2    A    
C67   H23   S    
C104  O16   A    
C51   H11   S    
C13   C141  S    
C124  C128  A    
C152  H60   S    
C104  C130  S    
C96   O6    A    
C54   H14   S    
O8    Zn12  S    
C18   C46   S    
C93   O45   A    
C138  H42   S    
O46   Zn10  S    
O56   H88   S    
C148  C152  S    
C38   H6    S    
C107  O51   S    
C10   O54   S    
C53   C57   A    
C33   C37   A    
C56   C60   A    
C68   C72   A    
C64   H20   S    
C35   C39   A    
O52   H84   S    
C47   O23   A    
C91   C93   S    
O34   Zn6   S    
C63   H19   S    
C6    H62   S    
C118  C132  A    
O48   Zn12  S    
C103  C129  S    
C93   O46   A    
C20   C48   S    
C92   C101  A    
C52   H12   S    
C7    C151  S    
C53   H13   S    
C138  C142  S    
C89   O42   A    
C79   O29   A    
C31   C35   A    
O38   Zn5   S    
C64   C68   A    
C73   C82   A    
O50   H82   S    
O44   Zn8   S    
O11   Zn12  S    
C137  C141  S    
C84   C136  A    
O17   Zn3   S    
C39   H7    S    
C40   H8    S    
C140  C144  S    
C17   C45   S    
C125  H53   S    
C128  C130  A    
C6    C10   S    
C75   C133  A    
C45   O25   A    
C13   C17   S    
C35   H79   S    
O24   Zn2   S    
C101  C117  A    
C122  H50   S    
O20   Zn4   S    
C78   C119  S    
C73   C89   S    
C11   C147  S    
C26   H74   S    
C65   C69   A    
C85   C145  S    
C9    C145  S    
C111  C114  A    
C67   C71   A    
C6    C150  S    
C108  C112  A    
O55   H87   S    
C22   C26   A    
C105  C119  A    
C13   H65   S    
C46   O22   A    
C145  C149  S    
O51   H83   S    
C14   C18   S    
C144  C148  S    
C76   C136  A    
C115  C131  A    
C138  C150  S    
C7    C11   S    
C8    C20   S    
C151  H59   S    
C124  H52   S    
C38   C42   A    
C2    O18   A    
C112  H40   S    
C12   O56   S    
C58   C96   S    
C87   O39   A    
C94   O47   A    
C88   O40   A    
C109  H37   S    
C90   O43   A    
C23   C27   A    
C48   O24   A    
C78   C124  A    
C83   C135  A    
C102  C118  A    
C109  C113  A    
O2    Zn1   S    
O9    Zn10  S    
C137  C149  S    
C34   H78   S    
C139  C143  S    
C92   C94   S    
C115  H29   S    
C24   H72   S    
C6    C18   S    
C137  H41   S    
O3    Zn2   S    
C85   O33   A    
C36   C40   A    
C127  H55   S    
C86   O38   A    
C39   C43   A    
C102  H36   S    
C122  C126  A    
C100  H34   S    
C9    O53   S    
C97   O11   A    
C56   H16   S    
C140  H44   S    
C110  C113  A    
C96   O10   A    
C80   C114  S    
O47   Zn11  S    
C59   C97   S    
C21   C41   A    
C20   C140  S    
C54   C58   A    
C134  H46   S    
C65   H21   S    
C34   C38   A    
C117  H31   S    
C118  H32   S    
C12   C148  S    
C127  C130  A    
C126  H54   S    
C22   C42   A    
C116  C131  A    
C24   C44   A    
O23   Zn2   S    
O19   Zn4   S    
O22   Zn1   S    
C139  H43   S    
C106  C110  A    
C57   C95   S    
C52   C56   A    
C45   O21   A    
