data_mof_unit_pretest_1620.cif
_audit_creation_date              2013-03-05T16:18:40-0500
_audit_creation_method            fapswitch 2.2
_symmetry_space_group_name_H-M    P1
_symmetry_Int_Tables_number       1
_space_group_crystal_system       triclinic
_cell_length_a                    32.535784
_cell_length_b                    33.805777
_cell_length_c                    22.388862
_cell_angle_alpha                 89.824724
_cell_angle_beta                  89.979189
_cell_angle_gamma                 90.039365
_cell_volume                      24625.3297287

loop_
_atom_site_label
_atom_site_type_symbol
_atom_site_description
_atom_site_fract_x
_atom_site_fract_y
_atom_site_fract_z
_atom_type_partial_charge
O1    O     O_R   0.041070 0.458950 0.550320 -0.571083
O2    O     O_R   0.958930 0.541050 0.449680 -0.508839
O3    O     O_R   0.958930 0.541050 0.550320 -0.567941
O4    O     O_R   0.041070 0.458950 0.449680 -0.506660
O5    O     O_R   0.958930 0.458950 0.449680 -0.545395
O6    O     O_R   0.041070 0.541050 0.550320 -0.540071
O7    O     O_R   0.041070 0.541050 0.449680 -0.534066
O8    O     O_R   0.958930 0.458950 0.550320 -0.533953
O9    O     O_R   0.541070 0.958950 0.550320 -0.554611
O10   O     O_R   0.458930 0.041050 0.449680 -0.537010
O11   O     O_R   0.458930 0.041050 0.550320 -0.537012
O12   O     O_R   0.541070 0.958950 0.449680 -0.535908
O13   O     O_R   0.458930 0.958950 0.449680 -0.546112
O14   O     O_R   0.541070 0.041050 0.550320 -0.508116
O15   O     O_R   0.541070 0.041050 0.449680 -0.567943
O16   O     O_R   0.458930 0.958950 0.550320 -0.539921
C1    C     C_R   0.034606 0.489734 0.319065 0.445346
C2    C     C_R   0.965442 0.489731 0.681147 0.421365
C3    C     C_R   0.965290 0.510242 0.319221 0.441569
C4    C     C_R   0.034761 0.510216 0.680692 0.419319
C5    C     C_R   0.534820 0.990161 0.319196 0.418652
C6    C     C_R   0.465492 0.990109 0.681363 0.420640
C7    C     C_R   0.465422 0.009884 0.318858 0.421510
C8    C     C_R   0.534950 0.009949 0.680422 0.442576
C9    C     C_R   0.054645 0.445448 0.500051 0.891366
C10   C     C_R   0.945639 0.554701 0.499924 0.891548
C11   C     C_R   0.945386 0.445785 0.499978 0.890966
C12   C     C_R   0.054808 0.554151 0.499942 0.887359
C13   C     C_R   0.554568 0.945740 0.500112 0.876833
C14   C     C_R   0.445436 0.054534 0.500064 0.905578
C15   C     C_R   0.445467 0.945422 0.499991 0.889014
C16   C     C_R   0.554373 0.054708 0.499969 0.890150
Cu1   Cu    Cu3+1 0.000000 0.500000 0.559570 1.083907
Cu2   Cu    Cu3+1 0.000000 0.500000 0.440430 1.132495
Cu3   Cu    Cu3+1 0.500000 1.000000 0.559570 1.112340
Cu4   Cu    Cu3+1 0.500000 0.000000 0.440430 1.092949
N1    N     N_R   0.000000 0.500000 0.350920 -0.290475
N2    N     N_R   0.000000 0.500000 0.649080 -0.287706
N3    N     N_R   0.500000 1.000000 0.350920 -0.290610
N4    N     N_R   0.500000 0.000000 0.649080 -0.291377
C17   C     C_R   0.192219 0.687742 0.445159 0.632214
C18   C     C_R   0.829556 0.292607 0.541095 0.637556
C19   C     C_R   0.820561 0.699958 0.548227 0.631851
C20   C     C_R   0.183369 0.303108 0.549372 0.630691
C21   C     C_R   0.679450 0.200177 0.451298 0.632436
C22   C     C_R   0.331064 0.790820 0.547293 0.624817
C23   C     C_R   0.340141 0.217304 0.468474 0.634558
C24   C     C_R   0.671491 0.793721 0.457197 0.638324
N5    N     N_R   0.184172 0.667846 0.497177 -0.461576
N6    N     N_R   0.829277 0.320185 0.496243 -0.460585
N7    N     N_R   0.819893 0.672189 0.503892 -0.460606
N8    N     N_R   0.185330 0.332582 0.507418 -0.460929
N9    N     N_R   0.680718 0.171663 0.494761 -0.460779
N10   N     N_R   0.337771 0.812023 0.496060 -0.459913
N11   N     N_R   0.337887 0.187709 0.510181 -0.459273
N12   N     N_R   0.671098 0.820472 0.502942 -0.460717
C25   C     C_R   0.206580 0.674229 0.547755 0.620093
C26   C     C_R   0.801032 0.319111 0.451239 0.611436
C27   C     C_R   0.790875 0.672739 0.459898 0.614858
C28   C     C_R   0.216942 0.334945 0.467463 0.617652
C29   C     C_R   0.710385 0.171404 0.537821 0.614750
C30   C     C_R   0.316748 0.804264 0.444670 0.626727
C31   C     C_R   0.307962 0.187101 0.552920 0.613847
C32   C     C_R   0.698816 0.818681 0.548607 0.610426
C33   C     C_R   0.238340 0.702257 0.547878 -0.065215
C34   C     C_R   0.771036 0.289469 0.450147 -0.063335
C35   C     C_R   0.760755 0.702273 0.458990 -0.065985
C36   C     C_R   0.248399 0.306652 0.468219 -0.067222
C37   C     C_R   0.740524 0.200928 0.538750 -0.065889
C38   C     C_R   0.286718 0.774542 0.443540 -0.066990
C39   C     C_R   0.277700 0.216503 0.553986 -0.066402
C40   C     C_R   0.728896 0.789127 0.549525 -0.062879
C41   C     C_R   0.246938 0.723743 0.495359 -0.040230
C42   C     C_R   0.770822 0.260327 0.495197 -0.042275
C43   C     C_R   0.760220 0.730917 0.504497 -0.042311
C44   C     C_R   0.247348 0.276064 0.511012 -0.041547
C45   C     C_R   0.740412 0.230384 0.494162 -0.042359
C46   C     C_R   0.278395 0.752789 0.495896 -0.041586
C47   C     C_R   0.278761 0.247046 0.511141 -0.042213
C48   C     C_R   0.729765 0.760809 0.503572 -0.042184
C49   C     C_R   0.223924 0.716441 0.442622 -0.097318
C50   C     C_R   0.800777 0.261245 0.541300 -0.096751
C51   C     C_R   0.790158 0.729790 0.550617 -0.094688
C52   C     C_R   0.214758 0.274254 0.553150 -0.094831
C53   C     C_R   0.709855 0.230031 0.448884 -0.095016
C54   C     C_R   0.301134 0.760371 0.548791 -0.098044
C55   C     C_R   0.310849 0.248293 0.468144 -0.098324
C56   C     C_R   0.700400 0.762484 0.456713 -0.097124
C57   C     C_R   0.261352 0.709223 0.599629 -0.144752
C58   C     C_R   0.741392 0.288610 0.404877 -0.146464
C59   C     C_R   0.731326 0.703550 0.413424 -0.145715
C60   C     C_R   0.280685 0.308457 0.426920 -0.145545
C61   C     C_R   0.770569 0.201428 0.583479 -0.145793
C62   C     C_R   0.264488 0.766806 0.391326 -0.143993
C63   C     C_R   0.246173 0.215416 0.596528 -0.145737
C64   C     C_R   0.757978 0.787538 0.595530 -0.146748
C65   C     C_R   0.800394 0.230988 0.585459 0.304452
C66   C     C_R   0.233509 0.738296 0.390118 0.303651
C67   C     C_R   0.214932 0.243595 0.596686 0.304696
C68   C     C_R   0.788411 0.758572 0.596640 0.304526
C69   C     C_R   0.292410 0.737662 0.600785 0.303815
C70   C     C_R   0.710985 0.259595 0.403696 0.304619
C71   C     C_R   0.701465 0.733061 0.411574 0.304710
C72   C     C_R   0.311661 0.279962 0.426296 0.304003
O17   O     O_2   0.169309 0.679590 0.396651 -0.425497
O18   O     O_2   0.857430 0.296158 0.585213 -0.426981
O19   O     O_2   0.850904 0.698543 0.589075 -0.433494
O20   O     O_2   0.150816 0.301894 0.586504 -0.433254
O21   O     O_2   0.648493 0.199489 0.411395 -0.432330
O22   O     O_2   0.353104 0.799821 0.596302 -0.428566
O23   O     O_2   0.370203 0.215936 0.427183 -0.428697
O24   O     O_2   0.644150 0.797956 0.412490 -0.425637
O25   O     O_2   0.197888 0.653612 0.597925 -0.466568
O26   O     O_2   0.802044 0.346793 0.407661 -0.472869
O27   O     O_2   0.791270 0.644690 0.417105 -0.465612
O28   O     O_2   0.217829 0.364647 0.427050 -0.462699
O29   O     O_2   0.710579 0.142586 0.579703 -0.465451
O30   O     O_2   0.324534 0.825746 0.395010 -0.466981
O31   O     O_2   0.307285 0.157710 0.593875 -0.467624
O32   O     O_2   0.697198 0.845557 0.593029 -0.474429
H1    H     H_    0.255132 0.692550 0.640041 0.224823
H2    H     H_    0.741567 0.310831 0.369898 0.224893
H3    H     H_    0.731452 0.681461 0.378461 0.224860
H4    H     H_    0.281919 0.332156 0.394280 0.224596
H5    H     H_    0.770944 0.178700 0.617703 0.224890
H6    H     H_    0.270913 0.783278 0.350793 0.224573
H7    H     H_    0.245406 0.192188 0.629962 0.225150
H8    H     H_    0.757325 0.809135 0.631177 0.224732
C73   C     C_R   0.845722 0.390045 0.511642 -0.144039
C74   C     C_R   0.160404 0.599274 0.489648 -0.142588
C75   C     C_R   0.123276 0.358907 0.459631 -0.140940
C76   C     C_R   0.882431 0.644731 0.459697 -0.141997
C77   C     C_R   0.350599 0.881738 0.517539 -0.164412
C78   C     C_R   0.618839 0.143785 0.540447 -0.138010
C79   C     C_R   0.654558 0.890558 0.489408 -0.146404
C80   C     C_R   0.351194 0.119004 0.482953 -0.162619
H9    H     H_    0.813644 0.395485 0.521616 0.200836
H10   H     H_    0.191888 0.590132 0.482230 0.199601
H11   H     H_    0.125272 0.335509 0.426815 0.200357
H12   H     H_    0.882583 0.668995 0.427982 0.200587
H13   H     H_    0.318882 0.884379 0.531706 0.197822
H14   H     H_    0.619444 0.167503 0.572861 0.201371
H15   H     H_    0.686718 0.896305 0.480324 0.200551
H16   H     H_    0.319681 0.116848 0.467687 0.197639
C81   C     C_R   0.873704 0.421298 0.512364 0.396487
C82   C     C_R   0.129000 0.571098 0.490270 0.389854
C83   C     C_R   0.090825 0.385935 0.457115 0.377409
C84   C     C_R   0.913577 0.616407 0.457904 0.371794
C85   C     C_R   0.376236 0.914830 0.518611 0.408011
C86   C     C_R   0.587560 0.115589 0.542635 0.372888
C87   C     C_R   0.626470 0.921710 0.488964 0.399822
C88   C     C_R   0.376700 0.085919 0.480442 0.405852
C89   C     C_R   0.915279 0.413975 0.499616 -0.154592
C90   C     C_R   0.088139 0.583100 0.499789 -0.142929
C91   C     C_R   0.087846 0.415910 0.500667 -0.164401
C92   C     C_R   0.913689 0.585277 0.500007 -0.174612
C93   C     C_R   0.417323 0.911500 0.499617 -0.157696
C94   C     C_R   0.586466 0.085184 0.499614 -0.173887
C95   C     C_R   0.584787 0.914026 0.500576 -0.145788
C96   C     C_R   0.417512 0.088580 0.500846 -0.169354
C97   C     C_R   0.928244 0.375844 0.484376 -0.268840
C98   C     C_R   0.079191 0.623084 0.509428 -0.256299
C99   C     C_R   0.117732 0.418200 0.545782 -0.205681
C100  C     C_R   0.882382 0.583071 0.543023 -0.210735
C101  C     C_R   0.431960 0.874918 0.479158 -0.290219
C102  C     C_R   0.617015 0.083547 0.455412 -0.209016
C103  C     C_R   0.571761 0.875557 0.514117 -0.289767
C104  C     C_R   0.431842 0.124405 0.524599 -0.270352
H17   H     H_    0.960192 0.370381 0.473430 0.206184
H18   H     H_    0.047759 0.632365 0.517092 0.195164
H19   H     H_    0.116214 0.441315 0.579082 0.240918
H20   H     H_    0.881882 0.559062 0.575170 0.246320
H21   H     H_    0.463531 0.872096 0.464322 0.181873
H22   H     H_    0.616837 0.060075 0.422594 0.246160
H23   H     H_    0.539693 0.869759 0.523964 0.179583
H24   H     H_    0.463057 0.126612 0.541074 0.216915
C105  C     C_R   0.900158 0.344703 0.482899 0.352798
C106  C     C_R   0.110655 0.651249 0.508780 0.348264
C107  C     C_R   0.150268 0.391417 0.547771 0.337162
C108  C     C_R   0.851014 0.611121 0.544141 0.338576
C109  C     C_R   0.406211 0.841781 0.478225 0.359885
C110  C     C_R   0.648534 0.111451 0.453927 0.338554
C111  C     C_R   0.599931 0.844484 0.515215 0.358272
C112  C     C_R   0.406128 0.157452 0.527454 0.356756
C113  C     C_R   0.858736 0.351736 0.497215 0.187080
C114  C     C_R   0.151450 0.639328 0.498597 0.193656
C115  C     C_R   0.152961 0.361405 0.504768 0.187505
C116  C     C_R   0.851180 0.642316 0.502570 0.184805
C117  C     C_R   0.365292 0.845232 0.497500 0.195051
C118  C     C_R   0.649284 0.141934 0.496357 0.183503
C119  C     C_R   0.641521 0.851929 0.502253 0.188232
C120  C     C_R   0.365578 0.154756 0.506358 0.190712
C121  C     C_R   0.999865 0.500110 0.223239 0.052435
C122  C     C_R   0.000243 0.500103 0.776840 0.058425
C123  C     C_R   0.500365 0.000349 0.223110 0.060410
C124  C     C_R   0.500614 0.000328 0.776792 0.056088
C125  C     C_R   0.034644 0.488983 0.874183 0.677055
C126  C     C_R   0.965423 0.489120 0.125984 0.676345
C127  C     C_R   0.965805 0.511656 0.873926 0.676325
C128  C     C_R   0.034404 0.511477 0.126047 0.676573
C129  C     C_R   0.535190 0.989444 0.874098 0.674178
C130  C     C_R   0.466094 0.989119 0.125827 0.676887
C131  C     C_R   0.466327 0.012041 0.873926 0.678494
C132  C     C_R   0.534929 0.011887 0.125950 0.676471
N13   N     N_R   0.000249 0.500272 0.842678 -0.432514
N14   N     N_R   0.999883 0.500256 0.157397 -0.431899
N15   N     N_R   0.500748 0.000653 0.842624 -0.432154
N16   N     N_R   0.500469 0.000457 0.157275 -0.432533
C133  C     C_R   0.963062 0.505102 0.936632 -0.133104
C134  C     C_R   0.037107 0.504912 0.063401 -0.133535
C135  C     C_R   0.037236 0.495617 0.936824 -0.133618
C136  C     C_R   0.962875 0.495782 0.063287 -0.133307
C137  C     C_R   0.463609 0.005417 0.936599 -0.134186
C138  C     C_R   0.537670 0.005365 0.063298 -0.133311
C139  C     C_R   0.537801 0.996122 0.936723 -0.132317
C140  C     C_R   0.463489 0.995881 0.063179 -0.133269
C141  C     C_R   0.000109 0.500361 0.968409 -0.082109
C142  C     C_R   0.000030 0.500355 0.031662 -0.081603
C143  C     C_R   0.500675 0.000741 0.968332 -0.082038
C144  C     C_R   0.500613 0.000669 0.031568 -0.082346
C145  C     C_R   0.925305 0.503653 0.968535 0.258925
C146  C     C_R   0.074854 0.503286 0.031513 0.258121
C147  C     C_R   0.074912 0.497106 0.968862 0.258582
C148  C     C_R   0.925208 0.497460 0.031240 0.257819
C149  C     C_R   0.425863 0.003810 0.968504 0.258356
C150  C     C_R   0.575417 0.003923 0.031388 0.258806
C151  C     C_R   0.575482 0.997739 0.968732 0.257890
C152  C     C_R   0.425805 0.997468 0.031172 0.258488
O33   O     O_2   0.065435 0.470416 0.845462 -0.418637
O34   O     O_2   0.934521 0.470669 0.154854 -0.419827
O35   O     O_2   0.935083 0.530183 0.844849 -0.419228
O36   O     O_2   0.065238 0.529874 0.154947 -0.418000
O37   O     O_2   0.565983 0.970866 0.845402 -0.422396
O38   O     O_2   0.435337 0.970386 0.154612 -0.418611
O39   O     O_2   0.435608 0.030636 0.844939 -0.416588
O40   O     O_2   0.565641 0.030466 0.154858 -0.418660
C153  C     C_R   0.032974 0.484192 0.256493 0.170772
C154  C     C_R   0.967079 0.484232 0.743787 0.171262
C155  C     C_R   0.966773 0.515892 0.256592 0.174292
C156  C     C_R   0.033353 0.515825 0.743299 0.173378
C157  C     C_R   0.533502 0.984693 0.256560 0.172254
C158  C     C_R   0.467260 0.984602 0.743967 0.164815
C159  C     C_R   0.467053 0.015774 0.256310 0.166208
C160  C     C_R   0.533744 0.015778 0.742982 0.175508
Cl1   Cl    Cl    0.083226 0.486810 0.353295 -0.377294
Cl2   Cl    Cl    0.916880 0.486799 0.647091 -0.427944
Cl3   Cl    Cl    0.916728 0.512970 0.353818 -0.401558
Cl4   Cl    Cl    0.083337 0.513010 0.646126 -0.450751
Cl5   Cl    Cl    0.583321 0.987736 0.353610 -0.430507
Cl6   Cl    Cl    0.416943 0.988043 0.647595 -0.381252
Cl7   Cl    Cl    0.416904 0.011048 0.352680 -0.384489
Cl8   Cl    Cl    0.583473 0.012002 0.645544 -0.401017
Br1   Br    Br    0.839214 0.226224 0.650024 -0.248770
Br2   Br    Br    0.206510 0.732279 0.314134 -0.248046
Br3   Br    Br    0.174678 0.237124 0.659075 -0.250225
Br4   Br    Br    0.825158 0.761170 0.663964 -0.252756
Br5   Br    Br    0.320519 0.742607 0.676093 -0.250296
Br6   Br    Br    0.673405 0.263239 0.337438 -0.249397
Br7   Br    Br    0.663547 0.729403 0.345759 -0.246835
Br8   Br    Br    0.353468 0.287889 0.366515 -0.252575
Cl9   Cl    Cl    0.855395 0.469418 0.526081 -0.467125
Cl10  Cl    Cl    0.141880 0.520957 0.480370 -0.474977
Cl11  Cl    Cl    0.053639 0.379735 0.400698 -0.495418
Cl12  Cl    Cl    0.952812 0.622310 0.404304 -0.492094
Cl13  Cl    Cl    0.354928 0.960080 0.540943 -0.390967
Cl14  Cl    Cl    0.549542 0.120764 0.598161 -0.505756
Cl15  Cl    Cl    0.644677 0.970102 0.476532 -0.465443
Cl16  Cl    Cl    0.355183 0.041340 0.455640 -0.390550
Br9   Br    Br    0.918983 0.293327 0.459493 -0.306482
Br10  Br    Br    0.097213 0.705665 0.522088 -0.323128
Br11  Br    Br    0.190958 0.397042 0.609036 -0.280980
Br12  Br    Br    0.807890 0.605443 0.601884 -0.273762
Br13  Br    Br    0.427622 0.792294 0.450884 -0.309997
Br14  Br    Br    0.690621 0.106532 0.394495 -0.274016
Br15  Br    Br    0.580925 0.792589 0.536141 -0.310173
Br16  Br    Br    0.426725 0.205330 0.561846 -0.297891
Br17  Br    Br    0.873064 0.504851 0.927188 -0.183874
Br18  Br    Br    0.127098 0.504216 0.072861 -0.184815
Br19  Br    Br    0.127245 0.495978 0.927712 -0.183433
Br20  Br    Br    0.872872 0.496582 0.072407 -0.186635
Br21  Br    Br    0.373614 0.004980 0.927185 -0.183874
Br22  Br    Br    0.627660 0.005112 0.072709 -0.184410
Br23  Br    Br    0.627792 0.996792 0.927523 -0.187878
Br24  Br    Br    0.373490 0.996267 0.072374 -0.186009
Br25  Br    Br    0.074525 0.451750 0.219284 -0.216029
Br26  Br    Br    0.925385 0.451980 0.781466 -0.234960
Br27  Br    Br    0.925073 0.548318 0.219471 -0.216915
Br28  Br    Br    0.075234 0.548071 0.780180 -0.235709
Br29  Br    Br    0.575520 0.952696 0.219561 -0.234746
Br30  Br    Br    0.425483 0.952519 0.781770 -0.233570
Br31  Br    Br    0.425110 0.047901 0.219160 -0.238046
Br32  Br    Br    0.575843 0.048045 0.779267 -0.214999

loop_
_geom_bond_atom_site_label_1
_geom_bond_atom_site_label_2
_geom_bond_distance
_ccdc_geom_bond_type
C4    N2    1.378705 A    
C112  Br16  1.915250 S    
C12   C90   1.460242 S    
C108  Br12  1.916636 S    
C88   C96   1.407293 A    
C11   C89   1.454176 S    
C134  C146  1.421515 A    
N10   C117  1.435988 S    
C73   C113  1.401431 A    
O12   C13   1.290249 A    
C9    C91   1.471624 S    
Cu2   N1    2.004027 S    
C133  C145  1.421528 A    
C70   Br6   1.926440 S    
C10   C92   1.466457 S    
Cu3   Cu4   2.667407 S    
C102  C110  1.393226 A    
C44   C47   1.417146 A    
C85   Cl13  1.754012 S    
C32   C40   1.399167 A    
C43   C51   1.420197 A    
C44   C52   1.420179 A    
C109  Br13  1.914772 S    
O4    C9    1.293327 A    
C137  C143  1.408679 A    
C22   C54   1.416818 A    
C3    Cl3   1.761992 S    
O15   C16   1.292864 A    
C13   C95   1.455187 S    
C88   Cl16  1.753164 S    
O16   C15   1.293814 A    
C14   C96   1.466966 S    
C84   Cl12  1.762564 S    
C30   C38   1.401301 A    
C140  C152  1.421340 A    
C129  C139  1.423410 A    
C17   O17   1.346542 S    
C80   C120  1.399135 A    
C8    N4    1.378428 A    
C103  H23   1.083928 S    
C38   C46   1.407978 A    
C38   C62   1.400118 A    
C6    Cl6   1.752866 S    
C145  C148  1.418781 A    
C37   C61   1.399819 A    
C60   H4    1.083450 S    
O16   Cu3   1.937435 S    
C5    Cl5   1.758181 S    
C7    C159  1.414833 A    
C23   O23   1.346506 S    
C74   C82   1.396425 A    
C158  Br30  1.931768 S    
C157  Br29  1.931816 S    
C107  C115  1.403567 A    
C49   C66   1.420933 A    
C62   C66   1.394439 A    
C105  C113  1.405753 A    
C101  H21   1.083813 S    
C148  Br20  1.936098 S    
C132  C138  1.423385 A    
C127  N13   1.376640 A    
C149  C152  1.418694 A    
C19   C51   1.414246 A    
C64   H8    1.083514 S    
C24   N12   1.368432 A    
C72   Br8   1.925967 S    
C41   C49   1.420509 A    
O3    C10   1.292472 A    
C27   O27   1.350088 S    
C127  O35   1.346854 S    
C129  O37   1.346797 S    
C121  C155  1.415678 A    
C82   Cl10  1.761004 S    
C67   Br3   1.926306 S    
N7    C116  1.434753 S    
C108  C116  1.404439 A    
C27   C35   1.399595 A    
O5    C11   1.287129 A    
C37   C45   1.407854 A    
C26   C34   1.398575 A    
N6    C113  1.433719 S    
C103  C111  1.394701 A    
C123  N16   1.473960 S    
C132  N16   1.376740 A    
O11   C14   1.289993 A    
C104  C112  1.397801 A    
C42   C45   1.415242 A    
C18   C50   1.414016 A    
C131  C137  1.422971 A    
C85   C93   1.407344 A    
C7    Cl7   1.751075 S    
C41   C46   1.417937 A    
C24   C56   1.414689 A    
C75   C83   1.397791 A    
N8    C115  1.436386 S    
C149  Br21  1.936034 S    
O12   Cu4   1.937840 S    
N8    C28   1.365001 A    
N9    C118  1.433742 S    
C86   Cl14  1.762549 S    
C20   O20   1.346706 S    
C73   C81   1.394359 A    
C130  O38   1.346855 S    
C100  C108  1.393853 A    
O9    C13   1.287984 A    
C74   C114  1.400243 A    
C110  Br14  1.916664 S    
C97   H17   1.083958 S    
C152  Br24  1.936035 S    
C79   H15   1.083165 S    
C123  C157  1.415017 A    
N12   C119  1.434750 S    
C21   N9    1.368250 A    
C59   H3    1.083513 S    
C47   C55   1.420358 A    
O5    Cu2   1.936423 S    
O1    C9    1.293501 A    
C58   H2    1.083521 S    
C76   C116  1.400195 A    
N11   C31   1.364971 A    
C109  C117  1.404411 A    
C87   C95   1.404710 A    
C42   C50   1.420242 A    
C57   H1    1.083458 S    
C17   N5    1.368214 A    
C80   C88   1.394416 A    
C160  Br32  1.931350 S    
C110  C118  1.403887 A    
N7    C27   1.364716 A    
C16   C94   1.466356 S    
C62   H6    1.083463 S    
C159  Br31  1.931590 S    
C23   C55   1.416717 A    
C135  C141  1.408967 A    
O6    C12   1.290125 A    
C102  H22   1.083094 S    
C30   O30   1.349916 S    
C35   C59   1.399949 A    
N5    C114  1.436042 S    
O1    Cu1   1.938644 S    
C76   C84   1.395323 A    
C8    Cl8   1.762258 S    
C77   C85   1.395244 A    
O13   Cu4   1.936423 S    
C34   C58   1.399732 A    
C125  N13   1.376583 A    
C33   C41   1.408076 A    
C93   C101  1.403616 A    
O14   Cu3   1.936419 S    
C75   H11   1.083181 S    
O9    Cu3   1.938644 S    
C25   O25   1.349870 S    
C101  C109  1.398577 A    
N10   C30   1.364775 A    
C91   C99   1.404556 A    
C141  C142  1.416175 A    
C19   O19   1.346766 S    
C29   O29   1.350134 S    
C53   C70   1.420387 A    
C132  O40   1.346820 S    
C128  C134  1.423400 A    
O7    C12   1.290505 A    
C40   C48   1.407766 A    
C69   Br5   1.926081 S    
C127  C133  1.423363 A    
C106  Br10  1.915305 S    
N6    C26   1.364534 A    
C33   C57   1.400198 A    
C82   C90   1.406614 A    
C150  Br22  1.935974 S    
C131  O39   1.346875 S    
C125  C135  1.423486 A    
C59   C71   1.393589 A    
C139  C143  1.408753 A    
C126  N14   1.376597 A    
C78   H14   1.083283 S    
C34   C42   1.407785 A    
C31   O31   1.350132 S    
C124  C160  1.415616 A    
C2    Cl2   1.757492 S    
C111  Br15  1.916503 S    
C98   H18   1.083663 S    
C1    Cl1   1.760714 S    
C17   C49   1.416626 A    
C6    N4    1.375584 A    
C126  C136  1.423445 A    
C22   N10   1.368085 A    
C112  C120  1.404489 A    
Cu1   Cu2   2.667407 S    
C129  N15   1.376733 A    
C73   H9    1.083181 S    
O2    C10   1.291706 A    
C1    N1    1.377788 A    
C3    C155  1.415364 A    
C122  C154  1.414897 A    
C18   O18   1.346749 S    
C121  C153  1.415363 A    
C15   C93   1.467048 S    
C54   C69   1.420917 A    
C18   N6    1.368185 A    
C106  C114  1.406118 A    
C147  Br19  1.936109 S    
C123  C159  1.414813 A    
C24   O24   1.346716 S    
C61   H5    1.083518 S    
C31   C39   1.399821 A    
C150  C151  1.418916 A    
C125  O33   1.346819 S    
C51   C68   1.420515 A    
C22   O22   1.346514 S    
C99   C107  1.394062 A    
C143  C144  1.415764 A    
C50   C65   1.420451 A    
O10   C14   1.294631 A    
C100  H20   1.083246 S    
C35   C43   1.407864 A    
N9    C29   1.364490 A    
C74   H10   1.083084 S    
C61   C65   1.393252 A    
O15   Cu4   1.937430 S    
C6    C158  1.414554 A    
C56   C71   1.420583 A    
C99   H19   1.082835 S    
O7    Cu2   1.937430 S    
C94   C102  1.403588 A    
C23   N11   1.368375 A    
C43   C48   1.415873 A    
C87   Cl15  1.760789 S    
C104  H24   1.083251 S    
C122  N13   1.474076 S    
C155  Br27  1.931408 S    
C58   C70   1.392970 A    
C128  N14   1.376678 A    
C121  N14   1.474114 S    
C156  Br28  1.931650 S    
C78   C86   1.394644 A    
C57   C69   1.394598 A    
O2    Cu2   1.938644 S    
C52   C67   1.420611 A    
C71   Br7   1.926336 S    
C5    N3    1.378381 A    
C90   C98   1.400248 A    
Cu4   N3    2.004027 S    
C63   C67   1.393567 A    
C140  C144  1.408691 A    
O14   C16   1.291327 A    
C20   C52   1.415128 A    
C154  Br26  1.931885 S    
C20   N8    1.368664 A    
N5    C25   1.364652 A    
O10   Cu4   1.938644 S    
C126  O34   1.346818 S    
C111  C119  1.406209 A    
C107  Br11  1.916475 S    
C83   C91   1.411786 A    
C76   H12   1.083257 S    
C128  O36   1.346840 S    
C3    N1    1.377880 A    
C86   C94   1.411221 A    
C138  C150  1.421509 A    
C77   H13   1.083307 S    
Cu1   N2    2.004027 S    
C32   O32   1.350162 S    
O6    Cu1   1.936419 S    
C122  C156  1.415289 A    
C21   C53   1.413641 A    
C4    C156  1.415770 A    
C29   C37   1.398927 A    
N11   C120  1.435941 S    
C78   C118  1.399740 A    
C124  N15   1.473984 S    
O11   Cu3   1.937840 S    
Cu3   N4    2.004027 S    
C2    N2    1.377496 A    
C81   C89   1.404651 A    
C80   H16   1.083377 S    
C28   O28   1.349850 S    
C138  C144  1.408766 A    
C92   C100  1.403331 A    
C81   Cl9   1.760579 S    
C36   C44   1.407905 A    
C19   N7    1.368472 A    
N12   C32   1.364770 A    
C79   C119  1.401707 A    
C131  N15   1.376667 A    
C135  C147  1.421440 A    
C45   C53   1.420198 A    
C79   C87   1.394855 A    
C25   C33   1.401513 A    
C64   C68   1.393248 A    
C36   C60   1.400363 A    
C139  C151  1.421400 A    
C95   C103  1.399832 A    
C146  Br18  1.936110 S    
C8    C160  1.415572 A    
C65   Br1   1.926367 S    
C21   O21   1.346793 S    
O8    Cu1   1.937435 S    
C96   C104  1.403637 A    
O4    Cu2   1.937840 S    
C146  C147  1.418803 A    
O13   C15   1.290736 A    
C97   C105  1.394048 A    
C136  C148  1.421411 A    
C98   C106  1.397624 A    
C137  C149  1.421436 A    
C60   C72   1.394739 A    
C39   C47   1.407583 A    
C55   C72   1.420769 A    
C40   C64   1.399833 A    
C63   H7    1.083472 S    
C4    Cl4   1.761880 S    
C39   C63   1.399899 A    
C28   C36   1.401393 A    
C48   C56   1.420236 A    
C46   C54   1.420484 A    
C77   C117  1.398889 A    
C124  C158  1.415117 A    
C26   O26   1.350195 S    
O8    C11   1.290632 A    
O3    Cu1   1.937840 S    
C105  Br9   1.916517 S    
C130  N16   1.376637 A    
C151  Br23  1.935962 S    
C84   C92   1.410682 A    
C66   Br2   1.926131 S    
C130  C140  1.422992 A    
C145  Br17  1.936126 S    
C68   Br4   1.926414 S    
C5    C157  1.415699 A    
C83   Cl11  1.762241 S    
C153  Br25  1.931634 S    
C7    N3    1.375593 A    
C89   C97   1.399765 A    
C134  C142  1.408862 A    
C2    C154  1.415177 A    
C1    C153  1.414966 A    
C133  C141  1.408886 A    
C136  C142  1.408933 A    
C75   C115  1.400847 A    
