data_mof_unit_pretest_699.cif
_audit_creation_date              2012-12-11T15:39:11-0500
_audit_creation_method            fapswitch 2.2
_symmetry_space_group_name_H-M    P1
_symmetry_Int_Tables_number       1
_space_group_crystal_system       triclinic
_cell_length_a                    17.474985
_cell_length_b                    24.592463
_cell_length_c                    14.866117
_cell_angle_alpha                 89.988823
_cell_angle_beta                  125.163903
_cell_angle_gamma                 89.603508
_cell_volume                      5222.66612348

loop_
_atom_site_label
_atom_site_type_symbol
_atom_type_description
_atom_site_fract_x
_atom_site_fract_y
_atom_site_fract_z
_atom_type_partial_charge
C1    C     C_R   0.347538 0.350203 0.913199 0.708151
C2    C     C_R   0.644175 0.347752 0.091034 0.707870
C3    C     C_R   0.838686 0.854139 0.908864 0.735994
C4    C     C_R   0.175541 0.862329 0.089163 0.708420
C5    C     C_R   0.392470 0.684279 0.001823 -0.066944
C6    C     C_R   0.682597 0.641562 0.001718 -0.016893
C7    C     C_R   0.825173 0.152198 0.999632 -0.000194
C8    C     C_R   0.121059 0.180083 0.994255 -0.056232
C9    C     C_R   0.448555 0.500372 0.273471 0.015400
C10   C     C_R   0.433438 0.499628 0.631219 0.030791
C11   C     C_R   0.955113 0.999134 0.281088 0.029131
C12   C     C_R   0.933721 0.999412 0.631822 0.023677
C13   C     C_R   0.176858 0.500807 0.723196 -0.107393
C14   C     C_R   0.803471 0.500459 0.362899 -0.120587
C15   C     C_R   0.700484 0.002162 0.633749 -0.116837
C16   C     C_R   0.324771 0.000416 0.288175 -0.110874
C17   C     C_R   0.039892 0.545471 0.571261 0.148129
C18   C     C_R   0.947898 0.547062 0.486006 0.140885
C19   C     C_R   0.557255 0.051145 0.506589 0.134461
C20   C     C_R   0.463760 0.047699 0.427822 0.149324
C21   C     C_R   0.076406 0.504124 0.649679 0.003895
C22   C     C_R   0.889797 0.504297 0.470738 0.009796
C23   C     C_R   0.615302 0.007103 0.524609 0.010923
C24   C     C_R   0.425431 0.003562 0.357111 0.000841
C25   C     C_R   0.015227 0.466177 0.647969 -0.048166
C26   C     C_R   0.920234 0.466070 0.556576 -0.041985
C27   C     C_R   0.582538 0.966551 0.442921 -0.038077
C28   C     C_R   0.485783 0.964958 0.357091 -0.053080
C29   C     C_3   0.968324 0.570715 0.408534 -0.312272
C30   C     C_3   0.071329 0.567942 0.503389 -0.222223
C31   C     C_3   0.437672 0.075113 0.497144 -0.223784
C32   C     C_3   0.542022 0.080614 0.584136 -0.305533
C33   C     C_R   0.327057 0.775659 0.944257 -0.233423
C34   C     C_R   0.736796 0.732166 0.064355 -0.224163
C35   C     C_R   0.665786 0.193062 0.901545 -0.222715
C36   C     C_R   0.233921 0.251853 0.085628 -0.206308
C37   C     C_R   0.605261 0.229979 0.901372 0.056853
C38   C     C_R   0.309686 0.278446 0.101749 0.075449
C39   C     C_R   0.268582 0.815508 0.939531 0.049357
C40   C     C_R   0.777731 0.778914 0.062294 0.045755
C41   C     C_R   0.635869 0.257491 0.000014 0.111275
C42   C     C_R   0.322987 0.278660 0.016023 0.086011
C43   C     C_R   0.225348 0.805888 0.993806 0.111423
C44   C     C_R   0.818491 0.778850 0.004145 0.117901
C45   C     C_R   0.449571 0.652272 0.091707 0.003990
C46   C     C_R   0.594993 0.628646 0.908797 0.068154
C47   C     C_R   0.914769 0.138565 0.090574 0.044540
C48   C     C_R   0.057572 0.149644 0.905456 0.031137
C49   C     C_R   0.708996 0.234061 0.099755 -0.149843
C50   C     C_R   0.268350 0.245861 0.923946 -0.121072
C51   C     C_R   0.239010 0.757879 0.050741 -0.098244
C52   C     C_R   0.818034 0.733016 0.948245 -0.102727
C53   C     C_R   0.297839 0.719302 0.056676 -0.169951
C54   C     C_R   0.775713 0.686286 0.949742 -0.188727
C55   C     C_R   0.766229 0.195253 0.099679 -0.195837
C56   C     C_R   0.196351 0.216865 0.911962 -0.172237
C57   C     C_R   0.341713 0.728430 0.003978 0.153782
C58   C     C_R   0.735735 0.686430 0.007993 0.131423
C59   C     C_R   0.751959 0.180707 0.000257 0.142293
C60   C     C_R   0.178529 0.220417 0.992378 0.145282
C61   C     C_R   0.392466 0.549793 0.464083 -0.153174
C62   C     C_R   0.394386 0.550070 0.372347 -0.154735
C63   C     C_R   0.887097 0.047838 0.461023 -0.146024
C64   C     C_R   0.892166 0.047664 0.371532 -0.163125
C65   C     C_R   0.404477 0.500860 0.332545 0.134223
C66   C     C_R   0.399627 0.500266 0.515468 0.135365
C67   C     C_R   0.910250 0.998618 0.338763 0.137385
C68   C     C_R   0.899055 0.998873 0.516201 0.136772
C69   C     C_R   0.390364 0.451834 0.368861 -0.160044
C70   C     C_R   0.388763 0.451410 0.460957 -0.151950
C71   C     C_R   0.900193 0.949292 0.377925 -0.151417
C72   C     C_R   0.894353 0.949418 0.466572 -0.154800
C73   C     C_R   0.480316 0.454659 0.248692 -0.102255
C74   C     C_R   0.452278 0.454394 0.696499 -0.093301
C75   C     C_R   0.983987 0.953948 0.252383 -0.093041
C76   C     C_R   0.950952 0.954353 0.696389 -0.113148
C77   C     C_R   0.233505 0.545588 0.753815 0.703216
C78   C     C_R   0.753287 0.545224 0.301943 0.688781
C79   C     C_R   0.749230 0.046146 0.696710 0.673579
C80   C     C_R   0.267175 0.045295 0.252692 0.710482
C81   C     C_R   0.479155 0.545716 0.247233 -0.093589
C82   C     C_R   0.447475 0.544752 0.694107 -0.129691
C83   C     C_R   0.986157 0.044751 0.256402 -0.130519
C84   C     C_R   0.950793 0.044868 0.695406 -0.092706
C85   C     C_R   0.231733 0.454762 0.747842 -0.223101
C86   C     C_R   0.757580 0.454615 0.301621 -0.203191
C87   C     C_R   0.744551 0.955751 0.695981 -0.194141
C88   C     C_R   0.270032 0.954794 0.262414 -0.231610
C89   C     C_R   0.358227 0.653082 0.910190 -0.010135
C90   C     C_R   0.687866 0.624335 0.092880 -0.175204
C91   C     C_R   0.816191 0.131096 0.907495 -0.143227
C92   C     C_R   0.147122 0.151330 0.087706 -0.015588
C93   C     C_R   0.443137 0.350577 0.095206 -0.229589
C94   C     C_R   0.555864 0.348376 0.908558 -0.225218
C95   C     C_R   0.932507 0.852907 0.092547 -0.239290
C96   C     C_R   0.086937 0.866434 0.904794 -0.215532
C97   C     C_R   0.374881 0.321314 0.007994 -0.125053
C98   C     C_R   0.612165 0.315090 0.999767 -0.129246
C99   C     C_R   0.860740 0.826853 0.001155 -0.151207
C100  C     C_R   0.167624 0.845492 0.995893 -0.146047
H1    H     H_    0.946510 0.544105 0.337051 0.139334
H2    H     H_    0.106437 0.607989 0.532964 0.191604
H3    H     H_    0.399314 0.114282 0.462302 0.199325
H4    H     H_    0.569993 0.058542 0.662840 0.134251
H5    H     H_    0.360613 0.780995 0.902144 0.132590
H6    H     H_    0.701970 0.732023 0.105710 0.143818
H7    H     H_    0.646217 0.175557 0.824491 0.119213
H8    H     H_    0.221923 0.252609 0.149580 0.123811
H9    H     H_    0.729027 0.248446 0.178794 0.209251
H10   H     H_    0.280573 0.242902 0.860563 0.190819
H11   H     H_    0.203448 0.750042 0.089720 0.164408
H12   H     H_    0.849760 0.733728 0.903510 0.155070
H13   H     H_    0.306710 0.681470 0.099343 0.124098
H14   H     H_    0.772722 0.650692 0.904890 0.135323
H15   H     H_    0.824583 0.179872 0.177983 0.130735
H16   H     H_    0.157725 0.189939 0.842133 0.129224
H17   H     H_    0.395183 0.588553 0.499925 0.120542
H18   H     H_    0.398177 0.588951 0.341329 0.115120
H19   H     H_    0.883610 0.086674 0.492514 0.125727
H20   H     H_    0.891608 0.086324 0.336523 0.113080
H21   H     H_    0.390198 0.413414 0.334056 0.126786
H22   H     H_    0.387982 0.412530 0.494311 0.118886
H23   H     H_    0.907338 0.910447 0.349610 0.119847
H24   H     H_    0.897099 0.910635 0.502462 0.119755
H25   H     H_    0.470885 0.412738 0.260253 0.111681
H26   H     H_    0.437119 0.412513 0.670416 0.099759
H27   H     H_    0.975531 0.911911 0.264342 0.097460
H28   H     H_    0.932706 0.912747 0.669647 0.101846
H29   H     H_    0.466988 0.587724 0.255710 0.098323
H30   H     H_    0.421843 0.585169 0.662974 0.109014
H31   H     H_    0.982135 0.085828 0.277029 0.109187
H32   H     H_    0.932386 0.086135 0.666357 0.126412
H33   H     H_    0.208344 0.413284 0.729182 0.215863
H34   H     H_    0.773403 0.412748 0.328807 0.204434
H35   H     H_    0.729686 0.914206 0.667840 0.210353
H36   H     H_    0.295477 0.914101 0.289822 0.229093
H37   H     H_    0.318813 0.667924 0.826345 0.163287
H38   H     H_    0.742977 0.632152 0.177817 0.170598
H39   H     H_    0.758347 0.135346 0.822291 0.153507
H40   H     H_    0.186210 0.166712 0.170696 0.166939
H41   H     H_    0.491591 0.337004 0.179141 0.179241
H42   H     H_    0.512935 0.337304 0.823115 0.160709
H43   H     H_    0.973616 0.837740 0.176221 0.151219
H44   H     H_    0.056362 0.857823 0.819183 0.149664
N1    N     N_R   0.394180 0.396910 0.943210 -0.103756
N2    N     N_R   0.605820 0.396910 0.056790 -0.099387
N3    N     N_R   0.894180 0.896910 0.943210 -0.107157
N4    N     N_R   0.105820 0.896910 0.056790 -0.102420
N5    N     N_R   0.450950 0.603070 0.056740 -0.067919
N6    N     N_R   0.549050 0.603070 0.943260 -0.071413
N7    N     N_R   0.950950 0.103070 0.056740 -0.065683
N8    N     N_R   0.049050 0.103070 0.943260 -0.065926
N9    N     N_R   0.525650 0.471570 0.206150 -0.039938
N10   N     N_R   0.474350 0.471570 0.793850 -0.040490
N11   N     N_R   0.025650 0.971570 0.206150 -0.038655
N12   N     N_R   0.974350 0.971570 0.793850 -0.042453
N13   N     N_R   0.319480 0.528420 0.793810 -0.115139
N14   N     N_R   0.680520 0.528420 0.206190 -0.111677
N15   N     N_R   0.819480 0.028420 0.793810 -0.110958
N16   N     N_R   0.180520 0.028420 0.206190 -0.113792
N17   N     N_R   0.525640 0.528390 0.206120 -0.043396
N18   N     N_R   0.474360 0.528390 0.793880 -0.052468
N19   N     N_R   0.025640 0.028390 0.206120 -0.048995
N20   N     N_R   0.974360 0.028390 0.793880 -0.050029
N21   N     N_R   0.319490 0.471590 0.793840 -0.072195
N22   N     N_R   0.680510 0.471590 0.206160 -0.076350
N23   N     N_R   0.819490 0.971590 0.793840 -0.079158
N24   N     N_R   0.180510 0.971590 0.206160 -0.077417
N25   N     N_R   0.394130 0.603080 0.943110 -0.059944
N26   N     N_R   0.605870 0.603080 0.056890 -0.048814
N27   N     N_R   0.894130 0.103080 0.943110 -0.049823
N28   N     N_R   0.105870 0.103080 0.056890 -0.060535
N29   N     N_R   0.450990 0.396900 0.056840 -0.080629
N30   N     N_R   0.549010 0.396900 0.943160 -0.079295
N31   N     N_R   0.950990 0.896900 0.056840 -0.073573
N32   N     N_R   0.049010 0.896900 0.943160 -0.076387
Ni1   Ni    Ni4+2 0.434860 0.434850 0.869700 0.238376
Ni2   Ni    Ni4+2 0.565140 0.434850 0.130300 0.251055
Ni3   Ni    Ni4+2 0.934860 0.934850 0.869700 0.233547
Ni4   Ni    Ni4+2 0.065140 0.934850 0.130300 0.238808
Ni5   Ni    Ni4+2 0.565130 0.565140 0.130240 0.259422
Ni6   Ni    Ni4+2 0.434870 0.565140 0.869760 0.215427
Ni7   Ni    Ni4+2 0.065130 0.065140 0.130240 0.229347
Ni8   Ni    Ni4+2 0.934870 0.065140 0.869760 0.255826
F1    F     F_    0.295640 0.331435 0.808590 -0.741819
F2    F     F_    0.682845 0.330792 0.195593 -0.747786
F3    F     F_    0.783718 0.836612 0.803478 -0.726522
F4    F     F_    0.228982 0.838714 0.189970 -0.738514
C101  C     C_1   0.934672 0.627221 0.376941 0.218459
N33   N     N_1   0.908766 0.671748 0.352487 -0.074116
C102  C     C_1   0.124288 0.528488 0.484013 0.099374
N34   N     N_1   0.166036 0.497569 0.469039 -0.076937
C103  C     C_1   0.392600 0.038335 0.531536 0.110140
N35   N     N_1   0.357113 0.009446 0.558359 -0.073181
C104  C     C_1   0.571997 0.137692 0.599460 0.227059
N36   N     N_1   0.595244 0.182586 0.610941 -0.066528
C105  C     C_1   0.513409 0.237494 0.800500 0.043627
N37   N     N_1   0.439680 0.243033 0.719425 -0.063491
C106  C     C_1   0.373928 0.300750 0.210133 0.033603
N38   N     N_1   0.425447 0.317205 0.298308 -0.097359
C107  C     C_1   0.255428 0.865679 0.881434 0.059597
N39   N     N_1   0.244816 0.905875 0.834914 -0.074085
C108  C     C_1   0.771163 0.827107 0.113413 0.051925
N40   N     N_1   0.765408 0.865673 0.153781 -0.085308
C109  C     C_1   0.520623 0.672349 0.199669 0.086645
N41   N     N_1   0.577774 0.688473 0.286369 -0.036567
C110  C     C_1   0.551367 0.653758 0.802261 0.031817
N42   N     N_1   0.517215 0.674630 0.717391 -0.075967
C111  C     C_1   0.972853 0.172094 0.186241 -0.003303
N43   N     N_1   0.019614 0.199023 0.262858 -0.073909
C112  C     C_1   0.987422 0.171699 0.798403 0.060672
N44   N     N_1   0.931105 0.189920 0.712822 -0.051097
F5    F     F_    0.205759 0.598204 0.740015 -0.751401
F6    F     F_    0.758322 0.595324 0.343091 -0.719535
F7    F     F_    0.747672 0.096094 0.657042 -0.726942
F8    F     F_    0.293969 0.097646 0.264559 -0.757699
C113  C     C_1   0.050175 0.426389 0.735474 0.106178
N45   N     N_1   0.078180 0.394589 0.805383 -0.073667
C114  C     C_1   0.856152 0.426521 0.549864 0.109692
N46   N     N_1   0.804948 0.394933 0.544625 -0.064160
C115  C     C_1   0.646310 0.926439 0.448704 0.103640
N47   N     N_1   0.697291 0.894431 0.453195 -0.078052
C116  C     C_1   0.448951 0.923177 0.273652 0.126210
N48   N     N_1   0.419588 0.889807 0.206971 -0.062833

loop_
_geom_bond_atom_site_label_1
_geom_bond_atom_site_label_2
_ccdc_geom_bond_type
N23   Ni3   S    
C108  N40   T    
C3    N3    A    
C93   N29   A    
C85   H33   S    
C55   C59   A    
C36   H8    S    
N21   Ni1   S    
C107  N39   T    
C6    C58   S    
C25   C113  S    
C19   C20   A    
C86   N22   A    
C78   F6    S    
C2    F2    S    
C77   F5    S    
C80   F8    S    
C34   C58   A    
C74   H26   S    
C109  N41   T    
C2    C98   A    
C95   H43   S    
C12   C68   S    
N2    Ni2   S    
N4    N32   A    
C96   C100  A    
C34   C40   A    
C71   H23   S    
C35   C37   A    
C38   C42   A    
C79   N15   A    
N8    N28   A    
N12   Ni3   S    
C95   C99   A    
C80   N16   A    
C52   H12   S    
C4    N4    A    
C54   H14   S    
C50   H10   S    
C14   C78   A    
N7    N27   A    
C74   N10   A    
C35   C59   A    
C41   C49   A    
C95   N31   A    
C21   C25   A    
N9    Ni2   S    
C1    N1    A    
C61   C66   A    
C78   N14   A    
N32   Ni3   S    
C87   N23   A    
C116  N48   T    
C11   C67   S    
C88   N24   A    
C86   H34   S    
C8    C60   S    
C33   C57   A    
C32   H4    S    
N22   Ni2   S    
C37   C105  S    
N15   Ni8   S    
N8    Ni8   S    
C29   C30   S    
C6    C46   A    
N16   Ni7   S    
C45   N5    A    
C61   C62   A    
C84   N20   A    
C44   C52   A    
C15   C23   S    
C91   H39   S    
C106  N38   T    
C16   C24   S    
C72   H24   S    
N5    Ni5   S    
C17   C30   S    
C30   H2    S    
C105  N37   T    
N3    N31   A    
C9    C73   A    
N15   N23   A    
C32   C104  S    
C19   C32   S    
C7    C59   S    
C90   H38   S    
C53   H13   S    
C17   C18   A    
C40   C44   A    
C10   C66   S    
C46   C110  S    
N5    N25   A    
C13   C77   A    
C27   C115  S    
C61   H17   S    
C102  N34   T    
C94   H42   S    
C64   C67   A    
C87   H35   S    
N27   Ni8   S    
C33   H5    S    
C43   C100  S    
C14   C86   A    
N6    Ni6   S    
N1    N29   A    
C42   C97   S    
C1    C97   A    
C114  N46   T    
C31   C103  S    
C53   C57   A    
C20   C31   S    
C39   C43   A    
C82   N18   A    
C12   C84   A    
N11   N19   A    
C25   C26   A    
N24   Ni4   S    
C5    C45   A    
C84   H32   S    
C50   C56   A    
C110  N42   T    
N9    N17   A    
C16   C80   A    
C7    C47   A    
C31   H3    S    
C19   C23   A    
C8    C48   A    
C83   H31   S    
C115  N47   T    
N20   Ni8   S    
N3    Ni3   S    
C96   H44   S    
C63   H19   S    
C70   H22   S    
C81   H29   S    
C112  N44   T    
C40   C108  S    
C69   H21   S    
C68   C72   A    
C7    C91   A    
C90   N26   A    
C111  N43   T    
C56   H16   S    
C29   H1    S    
C18   C29   S    
C33   C39   A    
C30   C102  S    
N7    Ni7   S    
N30   Ni1   S    
C88   H36   S    
C42   C50   A    
C8    C92   A    
C46   N6    A    
C94   N30   A    
C73   N9    A    
C48   C112  S    
C23   C27   A    
C91   N27   A    
C39   C107  S    
N26   Ni5   S    
C76   H28   S    
C29   C101  S    
C82   H30   S    
N13   Ni6   S    
N13   N21   A    
C36   C38   A    
C92   H40   S    
C93   C97   A    
C93   H41   S    
N11   Ni4   S    
N14   N22   A    
C15   C87   A    
C54   C58   A    
C45   C109  S    
C101  N33   T    
C65   C69   A    
C83   N19   A    
C63   C68   A    
C51   H11   S    
C96   N32   A    
C62   C65   A    
C26   C114  S    
C18   C22   A    
C81   N17   A    
N10   N18   A    
C31   C32   S    
C24   C28   A    
C47   N7    A    
C63   C64   A    
C36   C60   A    
C49   C55   A    
C3    F3    S    
C10   C82   A    
C75   N11   A    
N18   Ni6   S    
N31   Ni4   S    
N1    Ni1   S    
C15   C79   A    
C2    N2    A    
C66   C70   A    
C89   H37   S    
C64   H20   S    
C4    C100  A    
C5    C57   S    
C11   C83   A    
C1    F1    S    
C14   C22   S    
C12   C76   A    
C113  N45   T    
C49   H9    S    
C85   N21   A    
C71   C72   A    
C6    C90   A    
C13   C21   S    
C10   C74   A    
N28   Ni7   S    
C43   C51   A    
N6    N26   A    
C55   H15   S    
N29   Ni2   S    
C92   N28   A    
C28   C116  S    
C73   H25   S    
N2    N30   A    
C79   F7    S    
C44   C99   S    
C76   N12   A    
C52   C54   A    
C34   H6    S    
C67   C71   A    
N16   N24   A    
N19   Ni7   S    
C37   C41   A    
C69   C70   A    
N14   Ni5   S    
C9    C65   S    
N25   Ni6   S    
C62   H18   S    
C35   H7    S    
C38   C106  S    
C89   N25   A    
C104  N36   T    
C3    C99   A    
C47   C111  S    
C56   C60   A    
N12   N20   A    
N4    Ni4   S    
C103  N35   T    
C22   C26   A    
N10   Ni1   S    
C77   N13   A    
C27   C28   A    
C16   C88   A    
C94   C98   A    
C41   C98   S    
C13   C85   A    
C11   C75   A    
C51   C53   A    
C48   N8    A    
C20   C24   A    
N17   Ni5   S    
C5    C89   A    
C4    F4    S    
C9    C81   A    
C75   H27   S    
C17   C21   A    
