data_mof_unit_pretest_879.cif
_audit_creation_date              2012-12-10T19:30:39-0500
_audit_creation_method            fapswitch 2.2
_symmetry_space_group_name_H-M    P1
_symmetry_Int_Tables_number       1
_space_group_crystal_system       triclinic
_cell_length_a                    14.944047
_cell_length_b                    15.746301
_cell_length_c                    16.748531
_cell_angle_alpha                 90.036879
_cell_angle_beta                  85.053834
_cell_angle_gamma                 89.468218
_cell_volume                      3926.30529755

loop_
_atom_site_label
_atom_site_type_symbol
_atom_type_description
_atom_site_fract_x
_atom_site_fract_y
_atom_site_fract_z
_atom_type_partial_charge
C1    C     C_R   0.499600 0.662425 0.500175 0.908859
C2    C     C_3   0.564212 0.027109 0.544028 0.512640
C3    C     C_3   0.499404 0.916899 0.501092 -0.052328
C4    C     C_3   0.500578 0.083182 0.499610 -0.051931
C5    C     C_1   0.498425 0.826202 0.501281 0.065993
C6    C     C_1   0.501561 0.173855 0.499220 0.065054
C7    C     C_3   0.029722 0.580930 0.493766 -0.371110
C8    C     C_3   0.970290 0.418775 0.506444 -0.372580
C9    C     C_3   0.976008 0.533663 0.432360 0.402069
C10   C     C_3   0.024025 0.466047 0.567848 0.398067
C11   C     C_3   0.963581 0.545174 0.561768 0.409836
C12   C     C_R   0.500399 0.337587 0.499839 0.896922
C13   C     C_3   0.036439 0.454533 0.438435 0.410053
C14   C     C_3   0.910036 0.499201 0.500258 -0.270891
C15   C     C_3   0.089973 0.500519 0.499937 -0.270833
C16   C     C_R   0.487508 0.498878 0.653748 0.901068
C17   C     C_R   0.512489 0.495632 0.346548 0.902450
C18   C     C_1   0.810071 0.499531 0.500130 0.336896
C19   C     C_1   0.189928 0.500336 0.499961 0.336808
C20   C     C_R   0.479555 0.485626 0.739954 -0.130418
C21   C     C_R   0.520759 0.467255 0.263655 -0.123048
C22   C     C_R   0.556834 0.486098 0.781193 -0.150559
C23   C     C_3   0.515936 0.027676 0.423638 -0.330462
C24   C     C_R   0.449986 0.422041 0.235003 -0.156589
C25   C     C_R   0.551773 0.463958 0.861138 -0.156325
C26   C     C_R   0.458960 0.388229 0.158633 -0.184639
C27   C     C_R   0.469415 0.440472 0.901364 0.026556
C28   C     C_R   0.537672 0.401504 0.108617 0.026618
C29   C     C_R   0.390563 0.441414 0.860658 0.465893
C30   C     C_R   0.611950 0.441698 0.138820 0.476467
C31   C     C_R   0.396453 0.464379 0.779944 -0.235446
C32   C     C_R   0.602463 0.474513 0.216636 -0.238401
C33   C     C_2   0.465370 0.424523 0.987503 -0.112748
C34   C     C_3   0.484044 0.972413 0.577077 -0.329190
C35   C     C_2   0.533976 0.389267 0.022478 -0.145502
C36   C     C_R   0.669524 0.934676 0.436963 0.157547
C37   C     C_R   0.708299 0.957781 0.360793 -0.098420
C38   C     C_R   0.791702 0.923986 0.331742 -0.120381
C39   C     C_R   0.836885 0.866975 0.378377 -0.053239
C40   C     C_R   0.798702 0.843584 0.454154 -0.071056
C41   C     C_R   0.715394 0.877301 0.483437 -0.092223
C42   C     C_R   0.330588 0.065645 0.563863 0.157937
C43   C     C_R   0.292107 0.043002 0.640264 -0.099692
C44   C     C_R   0.208943 0.077166 0.669504 -0.113750
C45   C     C_3   0.579825 0.970659 0.469129 -0.106414
C46   C     C_R   0.163696 0.134078 0.622824 -0.048090
C47   C     C_R   0.201587 0.157018 0.546820 -0.073921
C48   C     C_R   0.284667 0.122947 0.517354 -0.093320
C49   C     C_3   0.420159 0.029450 0.531589 -0.106098
C50   C     C_1   0.498652 0.751099 0.500856 -0.118828
C51   C     C_1   0.501334 0.248943 0.499405 -0.117486
C52   C     C_3   0.435756 0.973001 0.456687 0.511727
H1    H     H_    0.621589 0.502769 0.751534 0.204351
H2    H     H_    0.612544 0.466876 0.891601 0.209215
H3    H     H_    0.526448 0.052408 0.361538 0.193607
H4    H     H_    0.473540 0.947673 0.639172 0.194644
H5    H     H_    0.034902 0.319553 0.261158 0.396604
H6    H     H_    0.965129 0.680331 0.738902 0.393969
H7    H     H_    0.191509 0.468275 0.999574 0.407474
H8    H     H_    0.754165 0.531019 0.973498 0.400604
H9    H     H_    0.674598 0.001997 0.323828 0.146249
H10   H     H_    0.821353 0.942063 0.273042 0.164046
H11   H     H_    0.901435 0.840918 0.355785 0.181007
H12   H     H_    0.387665 0.412238 0.271761 0.203202
H13   H     H_    0.833652 0.799291 0.490159 0.200243
H14   H     H_    0.686453 0.858372 0.542143 0.181364
H15   H     H_    0.325879 0.998904 0.677290 0.146869
H16   H     H_    0.179532 0.059463 0.728392 0.166150
H17   H     H_    0.099326 0.160415 0.645563 0.182402
H18   H     H_    0.166600 0.201256 0.510789 0.200275
H19   H     H_    0.313415 0.141585 0.458500 0.180409
H20   H     H_    0.742763 0.011749 0.679445 0.399671
H21   H     H_    0.257013 0.988738 0.321518 0.399878
H22   H     H_    0.012687 0.637471 0.237492 0.395419
H23   H     H_    0.053031 0.647585 0.488528 0.232490
H24   H     H_    0.987811 0.362203 0.762772 0.401413
H25   H     H_    0.946982 0.352121 0.511684 0.232425
H26   H     H_    0.658033 0.507002 0.240305 0.217884
H27   H     H_    0.336658 0.463675 0.747759 0.223493
H28   H     H_    0.592070 0.363924 0.986724 0.210675
H29   H     H_    0.408235 0.451062 0.023959 0.213611
H30   H     H_    0.402299 0.355729 0.136709 0.199292
N1    N     N_1   0.731990 0.500000 0.499970 -0.081169
N2    N     N_1   0.268010 0.500000 0.500030 -0.081844
O1    O     O_R   0.425540 0.623220 0.500000 -0.591973
O2    O     O_2   0.140722 0.322175 0.388008 -0.324236
O3    O     O_3   0.003216 0.351389 0.306324 -0.478774
O4    O     O_2   0.858845 0.677188 0.612263 -0.318174
O5    O     O_2   0.856370 0.551417 0.698925 -0.248017
O6    O     O_3   0.996812 0.648761 0.693563 -0.485405
O7    O     O_2   0.217916 0.398992 0.847385 -0.228451
O8    O     O_2   0.294736 0.331638 0.954794 -0.287320
O9    O     O_3   0.247546 0.490348 0.971476 -0.536705
O10   O     O_2   0.785142 0.490016 0.130113 -0.219766
O11   O     O_2   0.745924 0.375572 0.040643 -0.288530
O12   O     O_R   0.574460 0.376780 0.500000 -0.595137
O13   O     O_3   0.697107 0.529865 0.008268 -0.561195
O14   O     O_2   0.720657 0.108680 0.548426 -0.280361
O15   O     O_2   0.607555 0.130339 0.662110 -0.269941
O16   O     O_3   0.693773 0.985940 0.651699 -0.556657
O17   O     O_2   0.392190 0.869777 0.338681 -0.266942
O18   O     O_2   0.279113 0.891774 0.452324 -0.280340
O19   O     O_3   0.306345 0.014372 0.348942 -0.558466
O20   O     O_2   0.895184 0.515676 0.296213 -0.206854
O21   O     O_2   0.882165 0.654673 0.362791 -0.329098
O22   O     O_3   0.035513 0.613313 0.286501 -0.485588
O23   O     O_R   0.574480 0.623220 0.499990 -0.605856
O24   O     O_2   0.118706 0.345634 0.637445 -0.321241
O25   O     O_2   0.104424 0.484486 0.704166 -0.209667
O26   O     O_3   0.964915 0.385821 0.713569 -0.487641
O27   O     O_R   0.425520 0.376780 0.500010 -0.611939
O28   O     O_R   0.416730 0.500010 0.615810 -0.610226
O29   O     O_R   0.583270 0.499990 0.384190 -0.607472
O30   O     O_R   0.565670 0.500010 0.615790 -0.609039
O31   O     O_R   0.434330 0.499990 0.384210 -0.607111
O32   O     O_2   0.144115 0.448105 0.301531 -0.242163
S1    S     S_3+6 0.085262 0.392704 0.356508 0.081965
S2    S     S_3+6 0.914763 0.606970 0.643705 0.082167
S3    S     S_3+6 0.284801 0.412280 0.908236 0.047882
S4    S     S_3+6 0.714292 0.457840 0.079496 0.044157
S5    S     S_3+6 0.648845 0.066713 0.602632 0.038962
S6    S     S_3+6 0.351047 0.933537 0.398096 0.039299
S7    S     S_3+6 0.943510 0.580260 0.342210 0.088935
S8    S     S_3+6 0.056717 0.419582 0.658013 0.095269
Zn1   Zn    Zn3+2 0.400550 0.500000 0.500010 1.049957
Zn2   Zn    Zn3+2 0.599450 0.500000 0.499990 1.052227

loop_
_geom_bond_atom_site_label_1
_geom_bond_atom_site_label_2
_ccdc_geom_bond_type
O14   S5    D    
C34   H4    S    
C8    C13   S    
C23   C45   S    
C27   C29   A    
C14   C18   S    
O1    Zn1   S    
C43   C44   A    
C17   O29   A    
O20   S7    D    
C27   C33   S    
C15   C19   S    
C29   S3    S    
C16   O28   A    
O6    S2    S    
C36   C37   A    
O8    S3    D    
C24   C26   A    
O3    S1    S    
C10   S8    S    
C10   C15   S    
C38   C39   A    
O30   Zn2   S    
C11   C14   S    
C35   H28   S    
O32   S1    D    
O21   S7    D    
O16   S5    S    
C9    C13   S    
C46   H17   S    
O26   S8    S    
C52   S6    S    
C28   C35   S    
C22   C25   A    
O22   S7    S    
O27   Zn1   S    
C6    C51   T    
C1    C50   S    
O15   S5    D    
C2    C34   S    
C7    C15   S    
C26   H30   S    
O9    S3    S    
C36   C41   A    
O10   S4    D    
O24   S8    D    
C44   C46   A    
C22   H1    S    
C2    C45   S    
C1    O1    A    
C21   C32   A    
C25   H2    S    
C4    C6    S    
H8    O13   S    
C39   C40   A    
C4    C23   S    
C7    H23   S    
O29   Zn2   S    
C3    C34   S    
C3    C45   S    
C17   C21   S    
H5    O3    S    
C7    C11   S    
C9    C14   S    
C47   H18   S    
C37   C38   A    
H22   O22   S    
C48   H19   S    
C13   S1    S    
C47   C48   A    
C16   C20   S    
C49   C52   S    
C18   N1    T    
O12   Zn2   S    
C36   C45   S    
C43   H15   S    
C42   C48   A    
C31   H27   S    
H6    O6    S    
O28   Zn1   S    
C1    O23   A    
C9    S7    S    
H24   O26   S    
C40   C41   A    
C20   C22   A    
C40   H13   S    
C13   C15   S    
C8    H25   S    
O7    S3    D    
C5    C50   T    
C44   H16   S    
C42   C43   A    
N1    Zn2   S    
O4    S2    D    
C19   N2    T    
C12   C51   S    
C17   O31   A    
H20   O16   S    
C2    S5    S    
N2    Zn1   S    
C7    C9    S    
C46   C47   A    
C34   C49   S    
C8    C14   S    
O23   Zn2   S    
C3    C5    S    
C16   O30   A    
C37   H9    S    
C3    C52   S    
O25   S8    D    
C23   H3    S    
C41   H14   S    
O11   S4    D    
C25   C27   A    
C39   H11   S    
C26   C28   A    
O17   S6    D    
O31   Zn1   S    
C4    C49   S    
O13   S4    S    
C28   C30   A    
C29   C31   A    
C30   C32   A    
O19   S6    S    
C23   C52   S    
C30   S4    S    
C2    C4    S    
C33   C35   D    
C24   H12   S    
O2    S1    D    
C10   C11   S    
C42   C49   S    
C32   H26   S    
H21   O19   S    
O5    S2    D    
C8    C10   S    
C21   C24   A    
C12   O12   A    
H7    O9    S    
O18   S6    D    
C11   S2    S    
C33   H29   S    
C12   O27   A    
C38   H10   S    
C20   C31   A    
