data_mof_unit_pretest_1751.cif
_audit_creation_date              2012-12-10T18:41:26-0500
_audit_creation_method            fapswitch 2.2
_symmetry_space_group_name_H-M    P1
_symmetry_Int_Tables_number       1
_space_group_crystal_system       triclinic
_cell_length_a                    25.527308
_cell_length_b                    25.527377
_cell_length_c                    60.006884
_cell_angle_alpha                 89.999907
_cell_angle_beta                  89.999907
_cell_angle_gamma                 90.0
_cell_volume                      39103.1988322

loop_
_atom_site_label
_atom_site_type_symbol
_atom_type_description
_atom_site_fract_x
_atom_site_fract_y
_atom_site_fract_z
_atom_type_partial_charge
C1    C     C_R   0.500000 0.000000 0.689267 0.512986
C2    C     C_R   0.001172 0.452562 0.129549 -0.055335
C3    C     C_R   0.544699 0.018592 0.488126 0.019275
C4    C     C_R   0.981317 0.455336 0.488126 0.019277
C5    C     C_R   0.544053 0.020075 0.511841 0.019360
C6    C     C_R   0.018683 0.544659 0.488126 0.019280
C7    C     C_R   0.455944 0.979928 0.511841 0.019361
C8    C     C_R   0.518738 0.955361 0.011874 0.019275
C9    C     C_R   0.955949 0.520081 0.988159 0.019373
C10   C     C_R   0.481262 0.044638 0.011874 0.019279
C11   C     C_R   0.044051 0.479920 0.988159 0.019375
C12   C     C_R   0.520221 0.956013 0.988159 0.019372
C13   C     C_R   0.547437 0.001188 0.870450 -0.055382
C14   C     C_R   0.044698 0.481403 0.011874 0.019280
C15   C     C_R   0.479778 0.043985 0.988159 0.019374
C16   C     C_R   0.955302 0.518597 0.011874 0.019277
C17   C     C_R   0.000001 0.499997 0.523556 0.035637
C18   C     C_R   0.499999 0.000001 0.476411 0.035591
C19   C     C_R   0.000000 0.499997 0.476412 0.035591
C20   C     C_R   0.499998 0.000002 0.523556 0.035638
C21   C     C_R   0.500000 0.999999 0.023588 0.035626
C22   C     C_R   1.000000 0.500000 0.976444 0.035654
C23   C     C_R   0.500000 0.999999 0.976444 0.035653
C24   C     C_R   0.998828 0.547439 0.129549 -0.055297
C25   C     C_R   1.000000 0.500000 0.023589 0.035627
C26   C     C_R   0.958531 0.414096 0.524393 -0.135614
C27   C     C_R   0.411200 0.965160 0.475575 -0.135689
C28   C     C_R   0.041471 0.585898 0.524393 -0.135658
C29   C     C_R   0.588798 0.034842 0.475575 -0.135691
C30   C     C_R   0.964975 0.411272 0.475575 -0.135672
C31   C     C_R   0.585987 0.041291 0.524393 -0.135648
C32   C     C_R   0.035025 0.588723 0.475575 -0.135711
C33   C     C_R   0.414010 0.958712 0.524393 -0.135620
C34   C     C_R   0.535132 0.911316 0.024425 -0.135569
C35   C     C_R   0.452560 0.001083 0.129549 -0.055328
C36   C     C_R   0.914018 0.541304 0.975607 -0.135578
C37   C     C_R   0.464868 0.088683 0.024425 -0.135580
C38   C     C_R   0.085981 0.458696 0.975607 -0.135592
C39   C     C_R   0.541581 0.914152 0.975607 -0.135585
C40   C     C_R   0.088793 0.465146 0.024425 -0.135578
C41   C     C_R   0.458419 0.085847 0.975607 -0.135590
C42   C     C_R   0.911206 0.534855 0.024425 -0.135565
C43   C     C_R   0.599570 0.099632 0.750000 0.510736
C44   C     C_R   0.099631 0.400429 0.250000 0.511027
C45   C     C_R   0.400430 0.900368 0.750001 0.511047
C46   C     C_R   0.001087 0.547439 0.870451 -0.055430
C47   C     C_R   0.900369 0.599571 0.250000 0.510942
C48   C     C_R   0.400429 0.099631 0.250000 0.510922
C49   C     C_R   0.900368 0.400430 0.750000 0.511061
C50   C     C_R   0.599571 0.900369 0.250000 0.511054
C51   C     C_R   0.099632 0.599570 0.750000 0.510732
C52   C     C_R   0.099570 0.599632 0.250000 0.510749
C53   C     C_R   0.599632 0.900430 0.749999 0.510888
C54   C     C_R   0.900430 0.400368 0.250000 0.510829
C55   C     C_R   0.400369 0.099571 0.750000 0.511012
C56   C     C_R   0.900430 0.599632 0.749999 0.510933
C57   C     C_R   0.547441 0.998916 0.129549 -0.055297
C58   C     C_R   0.400368 0.900430 0.250000 0.510801
C59   C     C_R   0.099571 0.400369 0.750000 0.510959
C60   C     C_R   0.599632 0.099570 0.250000 0.510768
C61   C     C_3   0.688239 0.731765 0.742635 0.174305
C62   C     C_3   0.732333 0.311193 0.258381 0.174247
C63   C     C_3   0.310739 0.267213 0.740895 0.174337
C64   C     C_3   0.268009 0.688465 0.257786 0.174247
C65   C     C_3   0.311535 0.731990 0.257786 0.174239
C66   C     C_3   0.267213 0.310739 0.740895 0.174344
C67   C     C_3   0.688807 0.267667 0.258381 0.174255
C68   C     C_R   0.998912 0.452561 0.870451 -0.055378
C69   C     C_3   0.731765 0.688240 0.742636 0.174297
C70   C     C_3   0.189832 0.233358 0.240066 0.174234
C71   C     C_3   0.231867 0.811659 0.757557 0.174291
C72   C     C_3   0.809944 0.766418 0.239762 0.174251
C73   C     C_3   0.767989 0.188485 0.757822 0.174338
C74   C     C_3   0.811515 0.232011 0.757822 0.174296
C75   C     C_3   0.766418 0.809944 0.239762 0.174238
C76   C     C_3   0.188341 0.768134 0.757557 0.174331
C77   C     C_3   0.233358 0.189832 0.240066 0.174248
C78   C     C_3   0.736811 0.779736 0.772986 -0.277859
C79   C     C_R   0.952560 0.498887 0.370451 -0.055722
C80   C     C_3   0.778139 0.264785 0.226836 -0.278172
C81   C     C_3   0.265942 0.223018 0.773267 -0.277970
C82   C     C_3   0.220922 0.736154 0.226936 -0.278145
C83   C     C_3   0.263847 0.779078 0.226936 -0.278139
C84   C     C_3   0.223018 0.265942 0.773267 -0.277976
C85   C     C_3   0.735215 0.221861 0.226836 -0.278181
C86   C     C_3   0.779736 0.736811 0.772986 -0.277856
C87   C     C_3   0.232709 0.275634 0.273359 -0.278286
C88   C     C_3   0.279436 0.763489 0.726977 -0.277858
C89   C     C_3   0.767792 0.724868 0.273386 -0.278319
C90   C     C_R   0.501081 0.952562 0.629549 -0.055461
C91   C     C_3   0.720979 0.236096 0.726929 -0.277909
C92   C     C_3   0.763904 0.279021 0.726929 -0.277873
C93   C     C_3   0.724868 0.767792 0.273386 -0.278309
C94   C     C_3   0.236512 0.720564 0.726977 -0.277893
C95   C     C_3   0.275634 0.232710 0.273359 -0.278294
C96   C     C_1   0.860717 0.639227 0.749981 0.039863
C97   C     C_1   0.639239 0.139270 0.250027 0.039220
C98   C     C_1   0.139261 0.360752 0.749968 0.039836
C99   C     C_1   0.360768 0.860722 0.250022 0.039281
C100  C     C_1   0.139278 0.639232 0.250022 0.039222
C101  C     C_R   0.047439 0.501110 0.370451 -0.055779
C102  C     C_1   0.360752 0.139262 0.749968 0.039894
C103  C     C_1   0.860729 0.360761 0.250027 0.039291
C104  C     C_1   0.639227 0.860717 0.749981 0.039816
C105  C     C_1   0.360749 0.139259 0.249962 0.039512
C106  C     C_1   0.139229 0.639280 0.750020 0.039585
C107  C     C_1   0.639247 0.860737 0.249959 0.039630
C108  C     C_1   0.860768 0.360723 0.750022 0.039938
C109  C     C_1   0.639277 0.139232 0.750022 0.039584
C110  C     C_1   0.860737 0.639247 0.249959 0.039505
C111  C     C_1   0.360720 0.860771 0.750021 0.039929
C112  C     C_R   1.000000 0.500000 0.310733 0.512612
C113  C     C_R   0.498914 0.047440 0.629549 -0.055131
C114  C     C_1   0.139259 0.360749 0.249962 0.039624
C115  C     C_3   0.712367 0.785573 0.749459 0.028707
C116  C     C_3   0.785629 0.287577 0.250578 0.029047
C117  C     C_3   0.287534 0.214328 0.749397 0.028649
C118  C     C_3   0.214404 0.712390 0.250557 0.029067
C119  C     C_3   0.287610 0.785595 0.250557 0.029055
C120  C     C_3   0.214328 0.287534 0.749397 0.028663
C121  C     C_3   0.712423 0.214371 0.250578 0.029063
C122  C     C_3   0.785573 0.712367 0.749459 0.028696
C123  C     C_3   0.212517 0.285723 0.249367 0.028901
C124  C     C_R   0.952563 0.501149 0.629550 -0.055460
C125  C     C_3   0.285583 0.787623 0.750548 0.028686
C126  C     C_3   0.787464 0.714258 0.249356 0.028924
C127  C     C_3   0.714402 0.212392 0.750557 0.028761
C128  C     C_3   0.787608 0.285598 0.750558 0.028678
C129  C     C_3   0.714258 0.787464 0.249356 0.028894
C130  C     C_3   0.212377 0.714417 0.750548 0.028767
C131  C     C_3   0.285723 0.212517 0.249367 0.028927
C132  C     C_3   0.799832 0.756887 0.732937 -0.206294
C133  C     C_3   0.758072 0.198982 0.266342 -0.206197
C134  C     C_3   0.198159 0.241105 0.734197 -0.206250
C135  C     C_R   0.501173 0.047439 0.370451 -0.055711
C136  C     C_3   0.242618 0.800327 0.266769 -0.206188
C137  C     C_3   0.199672 0.757382 0.266769 -0.206199
C138  C     C_3   0.241105 0.198159 0.734197 -0.206237
C139  C     C_3   0.801018 0.241928 0.266342 -0.206185
C140  C     C_3   0.756887 0.799832 0.732937 -0.206305
C141  C     C_3   0.302761 0.259815 0.234839 -0.206004
C142  C     C_3   0.257113 0.699941 0.766929 -0.206366
C143  C     C_3   0.696907 0.739854 0.235082 -0.205966
C144  C     C_3   0.742575 0.300370 0.766742 -0.206289
C145  C     C_3   0.699630 0.257425 0.766742 -0.206362
C146  C     C_R   0.047439 0.498845 0.629550 -0.055133
C147  C     C_3   0.739854 0.696908 0.235082 -0.205996
C148  C     C_3   0.300059 0.742886 0.766929 -0.206299
C149  C     C_3   0.259815 0.302761 0.234839 -0.205975
C150  C     C_1   0.827055 0.672267 0.749822 -0.011986
C151  C     C_1   0.672295 0.172917 0.250197 -0.012468
C152  C     C_1   0.172895 0.327683 0.749790 -0.012014
C153  C     C_1   0.327722 0.827066 0.250186 -0.012426
C154  C     C_1   0.172934 0.672278 0.250186 -0.012463
C155  C     C_1   0.327683 0.172895 0.749790 -0.011978
C156  C     C_1   0.827083 0.327705 0.250197 -0.012425
C157  C     C_R   0.498827 0.952562 0.370451 -0.055794
C158  C     C_1   0.672266 0.827054 0.749822 -0.012016
C159  C     C_1   0.327131 0.172343 0.249775 -0.012264
C160  C     C_1   0.172272 0.672940 0.750181 -0.012174
C161  C     C_1   0.672859 0.827647 0.249770 -0.012195
C162  C     C_1   0.827721 0.327067 0.750186 -0.011955
C163  C     C_1   0.672933 0.172279 0.750186 -0.012176
C164  C     C_1   0.827647 0.672860 0.249770 -0.012271
C165  C     C_1   0.327060 0.827728 0.750182 -0.011960
C166  C     C_1   0.172343 0.327131 0.249775 -0.012193
C167  C     C_R   0.520331 0.957980 0.917382 0.401400
C168  C     C_R   0.452515 0.998845 0.847188 -0.132708
C169  C     C_R   0.956476 0.516874 0.082650 0.401002
C170  C     C_R   0.479669 0.042019 0.917382 0.401407
C171  C     C_R   0.043524 0.483127 0.082650 0.400992
C172  C     C_R   0.517006 0.956528 0.082650 0.400999
C173  C     C_R   0.042083 0.479802 0.917381 0.401391
C174  C     C_R   0.482994 0.043471 0.082650 0.400979
C175  C     C_R   0.957916 0.520198 0.917381 0.401426
C176  C     C_R   0.983044 0.456507 0.417350 0.400879
C177  C     C_R   0.457910 0.979810 0.582618 0.401513
C178  C     C_R   0.016955 0.543489 0.417350 0.400843
C179  C     C_R   0.001140 0.452511 0.152812 -0.131843
C180  C     C_R   0.542085 0.020193 0.582619 0.401375
C181  C     C_R   0.979724 0.457951 0.582619 0.401509
C182  C     C_R   0.543525 0.016868 0.417350 0.400877
C183  C     C_R   0.020279 0.542042 0.582618 0.401372
C184  C     C_R   0.456474 0.983133 0.417350 0.400856
C185  C     C_R   0.547485 0.001154 0.847188 -0.132635
C186  C     C_R   0.998861 0.547489 0.152812 -0.131772
C187  C     C_R   0.452509 0.001053 0.152812 -0.131843
C188  C     C_R   0.500000 1.000000 0.310733 0.512611
C189  C     C_R   0.001057 0.547487 0.847188 -0.132678
C190  C     C_R   0.547491 0.998946 0.152812 -0.131781
C191  C     C_R   0.998942 0.452513 0.847188 -0.132637
C192  C     C_R   0.952509 0.498919 0.347188 -0.132430
C193  C     C_R   0.501052 0.952513 0.652811 -0.132675
C194  C     C_R   0.047490 0.501079 0.347188 -0.132556
C195  C     C_R   0.498945 0.047488 0.652812 -0.132301
C196  C     C_R   0.952515 0.501118 0.652812 -0.132685
C197  C     C_R   0.501141 0.047489 0.347188 -0.132423
C198  C     C_R   0.047487 0.498879 0.652812 -0.132307
C199  C     C_R   1.000000 0.500000 0.689267 0.512985
C200  C     C_R   0.498860 0.952511 0.347189 -0.132558
C201  C     C_R   0.500000 1.000000 0.882197 0.235221
C202  C     C_R   0.000000 0.500000 0.117813 0.235506
C203  C     C_R   0.500000 0.999999 0.117813 0.235471
C204  C     C_R   0.999999 0.500000 0.882198 0.235260
C205  C     C_R   0.999999 0.499998 0.382187 0.235654
C206  C     C_R   0.499997 0.000001 0.617802 0.235249
C207  C     C_R   0.000001 0.499997 0.617803 0.235226
C208  C     C_R   0.500000 0.000000 0.382187 0.235675
C209  C     C_R   0.500000 1.000000 0.952707 -0.025955
C210  C     C_R   1.000000 0.500000 0.189267 0.513467
C211  C     C_R   1.000000 0.500000 0.047325 -0.026139
C212  C     C_R   0.500000 0.999999 0.047325 -0.026140
C213  C     C_R   1.000000 0.500000 0.952707 -0.025955
C214  C     C_R   1.000000 0.499998 0.452675 -0.026152
C215  C     C_R   0.499998 0.000002 0.547293 -0.025954
C216  C     C_R   0.000001 0.499997 0.547293 -0.025954
C217  C     C_R   0.499999 0.000001 0.452675 -0.026152
C218  C     C_R   0.520796 0.957263 0.940804 0.025576
C219  C     C_R   0.955726 0.517299 0.059229 0.024886
C220  C     C_R   0.479203 0.042736 0.940804 0.025582
C221  C     C_R   0.500000 1.000000 0.810733 0.512760
C222  C     C_R   0.044274 0.482702 0.059228 0.024896
C223  C     C_R   0.517436 0.955780 0.059228 0.024886
C224  C     C_R   0.042803 0.479340 0.940804 0.025581
C225  C     C_R   0.482564 0.044219 0.059228 0.024901
C226  C     C_R   0.957196 0.520660 0.940804 0.025566
C227  C     C_R   0.982616 0.455757 0.440772 0.024911
C228  C     C_R   0.457191 0.979349 0.559196 0.025565
C229  C     C_R   0.017383 0.544238 0.440772 0.024937
C230  C     C_R   0.542805 0.020655 0.559196 0.025599
C231  C     C_R   0.979259 0.457233 0.559197 0.025567
C232  C     C_R   1.000000 0.500000 0.810733 0.512762
C233  C     C_R   0.544275 0.017293 0.440772 0.024914
C234  C     C_R   0.020743 0.542760 0.559196 0.025602
C235  C     C_R   0.455723 0.982708 0.440771 0.024932
C236  C     C_R   0.541687 0.914821 0.952460 -0.107004
C237  C     C_R   0.911573 0.534273 0.047572 -0.106756
C238  C     C_R   0.458313 0.085178 0.952460 -0.107011
C239  C     C_R   0.088427 0.465728 0.047572 -0.106778
C240  C     C_R   0.534548 0.911680 0.047572 -0.106752
C241  C     C_R   0.085312 0.458587 0.952460 -0.107020
C242  C     C_R   0.465452 0.088319 0.047572 -0.106778
C243  C     C_R   0.500000 1.000000 0.189267 0.513470
C244  C     C_R   0.914687 0.541413 0.952460 -0.106997
C245  C     C_R   0.965557 0.411637 0.452428 -0.106999
C246  C     C_R   0.414678 0.958603 0.547540 -0.106994
C247  C     C_R   0.034442 0.588359 0.452428 -0.107056
C248  C     C_R   0.585318 0.041401 0.547540 -0.107047
C249  C     C_R   0.958424 0.414764 0.547540 -0.106989
C250  C     C_R   0.588431 0.034261 0.452428 -0.107012
C251  C     C_R   0.041578 0.585229 0.547540 -0.107052
C252  C     C_R   0.411567 0.965741 0.452428 -0.107044
C253  C     C_R   0.500000 1.000000 0.835327 0.023534
C254  C     C_R   0.452563 0.998812 0.870450 -0.055428
C255  C     C_R   1.000000 0.500000 0.164673 0.023795
C256  C     C_R   0.500000 1.000000 0.164673 0.023801
C257  C     C_R   1.000000 0.500000 0.835327 0.023544
C258  C     C_R   1.000000 0.499999 0.335327 0.023649
C259  C     C_R   0.499999 0.000000 0.664672 0.023583
C260  C     C_R   0.000000 0.499999 0.664673 0.023576
C261  C     C_R   0.500000 0.000000 0.335327 0.023646
C262  C     C_R   0.979835 0.455985 0.511841 0.019360
C263  C     C_R   0.455298 0.981411 0.488126 0.019283
C264  C     C_R   0.020166 0.544009 0.511841 0.019360
Cl1   Cl    Cl    0.652311 0.736659 0.716854 -0.502015
Cl2   Cl    Cl    0.237100 0.847247 0.783411 -0.501700
Cl3   Cl    Cl    0.840603 0.756256 0.213044 -0.500124
Cl4   Cl    Cl    0.762283 0.153368 0.783775 -0.501715
Cl5   Cl    Cl    0.846631 0.237716 0.783775 -0.501634
Cl6   Cl    Cl    0.756256 0.840603 0.213045 -0.500086
Cl7   Cl    Cl    0.152752 0.762900 0.783411 -0.501763
Cl8   Cl    Cl    0.242942 0.158594 0.213432 -0.500209
Cl9   Cl    Cl    0.739043 0.345305 0.284533 -0.500044
Cl10  Cl    Cl    0.343527 0.259180 0.714506 -0.501623
Cl11  Cl    Cl    0.262369 0.653283 0.283726 -0.500231
Cl12  Cl    Cl    0.346717 0.737630 0.283726 -0.500229
Cl13  Cl    Cl    0.259179 0.343527 0.714506 -0.501640
Cl14  Cl    Cl    0.654695 0.260957 0.284533 -0.500063
Cl15  Cl    Cl    0.736659 0.652311 0.716854 -0.502008
Cl16  Cl    Cl    0.158594 0.242942 0.213432 -0.500199
H1    H     H_    0.720834 0.658467 0.755372 0.107676
H2    H     H_    0.158401 0.779232 0.744917 0.107780
H3    H     H_    0.194431 0.741970 0.283960 0.188729
H4    H     H_    0.258029 0.805568 0.283960 0.188734
H5    H     H_    0.191338 0.254937 0.716863 0.188303
H6    H     H_    0.743368 0.193033 0.283603 0.188711
H7    H     H_    0.804578 0.740980 0.715801 0.188265
H8    H     H_    0.246998 0.310597 0.217442 0.188995
H9    H     H_    0.305030 0.758567 0.784091 0.188226
H10   H     H_    0.752293 0.688694 0.217667 0.188978
H11   H     H_    0.694345 0.242057 0.783938 0.188192
H12   H     H_    0.757943 0.305655 0.783938 0.188234
H13   H     H_    0.779750 0.842116 0.250933 0.107226
H14   H     H_    0.688694 0.752293 0.217667 0.188998
H15   H     H_    0.241432 0.694970 0.784091 0.188192
H16   H     H_    0.310597 0.246998 0.217442 0.188979
H17   H     H_    0.584287 0.002304 0.879376 0.143036
H18   H     H_    0.998069 0.584285 0.120614 0.141881
H19   H     H_    0.415713 0.997695 0.879376 0.142989
H20   H     H_    0.001931 0.415716 0.120614 0.141847
H21   H     H_    0.584289 0.998227 0.120615 0.141918
H22   H     H_    0.997874 0.415709 0.879377 0.142984
H23   H     H_    0.415712 0.001772 0.120615 0.141886
H24   H     H_    0.841683 0.220683 0.745319 0.107846
H25   H     H_    0.002124 0.584291 0.879377 0.142937
H26   H     H_    0.084287 0.501820 0.379386 0.141548
H27   H     H_    0.497880 0.084292 0.620623 0.143169
H28   H     H_    0.915712 0.498176 0.379386 0.141608
H29   H     H_    0.502115 0.915710 0.620623 0.142865
H30   H     H_    0.084290 0.497757 0.620624 0.143199
H31   H     H_    0.498067 0.915716 0.379387 0.141509
H32   H     H_    0.915713 0.502237 0.620624 0.142898
H33   H     H_    0.501933 0.084285 0.379386 0.141602
H34   H     H_    0.558442 0.881684 0.943712 0.169770
H35   H     H_    0.779316 0.158317 0.745319 0.107789
H36   H     H_    0.876778 0.547235 0.056321 0.170944
H37   H     H_    0.441558 0.118314 0.943712 0.169753
H38   H     H_    0.123222 0.452766 0.056321 0.170907
H39   H     H_    0.547618 0.876926 0.056321 0.170957
H40   H     H_    0.118503 0.441940 0.943712 0.169743
H41   H     H_    0.452382 0.123073 0.056321 0.170912
H42   H     H_    0.881496 0.558060 0.943712 0.169775
H43   H     H_    0.952528 0.376867 0.443679 0.170614
H44   H     H_    0.381484 0.941962 0.556288 0.169772
H45   H     H_    0.047471 0.623128 0.443679 0.170531
H46   H     H_    0.842116 0.779750 0.250933 0.107210
H47   H     H_    0.618511 0.058042 0.556288 0.169722
H48   H     H_    0.941713 0.381606 0.556288 0.169778
H49   H     H_    0.623228 0.047218 0.443679 0.170596
H50   H     H_    0.058289 0.618388 0.556288 0.169719
H51   H     H_    0.376770 0.952784 0.443679 0.170537
H52   H     H_    0.220768 0.841599 0.744917 0.107838
H53   H     H_    0.157905 0.220271 0.251415 0.107207
H54   H     H_    0.940794 0.380154 0.516914 0.114748
H55   H     H_    0.375122 0.952315 0.483054 0.114904
H56   H     H_    0.059208 0.619840 0.516914 0.114711
H57   H     H_    0.658162 0.279471 0.246171 0.107645
H58   H     H_    0.624876 0.047688 0.483054 0.114905
H59   H     H_    0.952054 0.375221 0.483054 0.114936
H60   H     H_    0.619967 0.058956 0.516914 0.114727
H61   H     H_    0.047946 0.624774 0.483054 0.114878
H62   H     H_    0.380029 0.941048 0.516914 0.114728
H63   H     H_    0.548096 0.875281 0.016946 0.115084
H64   H     H_    0.880041 0.558975 0.983086 0.114833
H65   H     H_    0.451904 0.124718 0.016946 0.115065
H66   H     H_    0.119958 0.441026 0.983086 0.114811
H67   H     H_    0.559363 0.880234 0.983086 0.114834
H68   H     H_    0.279623 0.341989 0.752713 0.107731
H69   H     H_    0.124870 0.452295 0.016946 0.115059
H70   H     H_    0.440637 0.119765 0.983086 0.114817
H71   H     H_    0.875130 0.547705 0.016946 0.115082
H72   H     H_    0.774670 0.838026 0.737722 0.120500
H73   H     H_    0.838852 0.224504 0.260852 0.119649
H74   H     H_    0.223971 0.160613 0.740188 0.121147
H75   H     H_    0.161621 0.775022 0.261692 0.119415
H76   H     H_    0.224978 0.838379 0.261692 0.119473
H77   H     H_    0.160613 0.223971 0.740188 0.121093
H78   H     H_    0.775495 0.161147 0.260852 0.119590
H79   H     H_    0.341672 0.720694 0.245264 0.107630
H80   H     H_    0.838026 0.774670 0.737722 0.120550
H81   H     H_    0.276582 0.339939 0.241404 0.121261
H82   H     H_    0.338189 0.725167 0.762011 0.120469
H83   H     H_    0.723232 0.659874 0.241859 0.121233
H84   H     H_    0.661591 0.275052 0.761640 0.120221
H85   H     H_    0.724947 0.338409 0.761640 0.120560
H86   H     H_    0.659874 0.723232 0.241859 0.121355
H87   H     H_    0.274832 0.661811 0.762011 0.120134
H88   H     H_    0.339940 0.276582 0.241404 0.121140
H89   H     H_    0.584663 0.002120 0.838506 0.151309
H90   H     H_    0.279305 0.658328 0.245264 0.107618
H91   H     H_    0.997979 0.584669 0.161493 0.151556
H92   H     H_    0.415337 0.997880 0.838507 0.151244
H93   H     H_    0.002021 0.415331 0.161493 0.151505
H94   H     H_    0.584673 0.998134 0.161493 0.151542
H95   H     H_    0.998055 0.415332 0.838507 0.151282
H96   H     H_    0.415327 0.001865 0.161493 0.151496
H97   H     H_    0.001944 0.584667 0.838507 0.151235
H98   H     H_    0.084672 0.501913 0.338507 0.151092
H99   H     H_    0.498061 0.084668 0.661493 0.151527
H100  H     H_    0.915328 0.498086 0.338507 0.151207
H101  H     H_    0.341989 0.279623 0.752713 0.107739
H102  H     H_    0.501936 0.915333 0.661493 0.151180
H103  H     H_    0.084665 0.497941 0.661493 0.151540
H104  H     H_    0.497978 0.915331 0.338508 0.151095
H105  H     H_    0.915335 0.502055 0.661493 0.151190
H106  H     H_    0.502023 0.084669 0.338507 0.151220
H107  H     H_    0.754244 0.817646 0.778382 0.149688
H108  H     H_    0.815648 0.247754 0.220745 0.148282
H109  H     H_    0.249231 0.185829 0.779853 0.149504
H110  H     H_    0.183172 0.753427 0.221251 0.148316
H111  H     H_    0.246574 0.816828 0.221251 0.148351
H112  H     H_    0.720529 0.341838 0.246171 0.107657
H113  H     H_    0.185829 0.249231 0.779853 0.149476
H114  H     H_    0.752246 0.184353 0.220745 0.148245
H115  H     H_    0.817646 0.754244 0.778382 0.149714
H116  H     H_    0.249019 0.312421 0.280511 0.148627
H117  H     H_    0.317274 0.746128 0.721449 0.149593
H118  H     H_    0.751640 0.688239 0.280746 0.148508
H119  H     H_    0.683244 0.253355 0.721219 0.149380
H120  H     H_    0.746646 0.316757 0.721219 0.149567
H121  H     H_    0.688238 0.751640 0.280746 0.148564
H122  H     H_    0.253872 0.682726 0.721449 0.149406
H123  H     H_    0.658467 0.720834 0.755372 0.107666
H124  H     H_    0.312421 0.249020 0.280511 0.148573
H125  H     H_    0.705914 0.769394 0.785315 0.125037
H126  H     H_    0.766954 0.296526 0.215040 0.124063
H127  H     H_    0.298268 0.234788 0.784666 0.124662
H128  H     H_    0.231616 0.704904 0.214824 0.124155
H129  H     H_    0.295097 0.768384 0.214825 0.124163
H130  H     H_    0.234788 0.298267 0.784666 0.124651
H131  H     H_    0.703474 0.233046 0.215040 0.124047
H132  H     H_    0.769394 0.705914 0.785315 0.125041
H133  H     H_    0.199732 0.263211 0.284285 0.123447
H134  H     H_    0.220271 0.157905 0.251415 0.107189
H135  H     H_    0.268933 0.794548 0.714747 0.125085
H136  H     H_    0.801005 0.737526 0.284133 0.123369
H137  H     H_    0.731704 0.204816 0.714837 0.124976
H138  H     H_    0.795185 0.268296 0.714837 0.125031
H139  H     H_    0.737526 0.801005 0.284133 0.123389
H140  H     H_    0.205453 0.731067 0.714747 0.125035
H141  H     H_    0.263211 0.199732 0.284285 0.123430
H142  H     H_    0.740980 0.804578 0.715801 0.188261
H143  H     H_    0.806966 0.256631 0.283603 0.188719
H144  H     H_    0.254937 0.191338 0.716863 0.188312
N1    N     N_R   0.500000 0.999999 0.906160 -0.396537
N2    N     N_R   0.000000 0.500001 0.093861 -0.397658
N3    N     N_R   0.500000 0.999999 0.093861 -0.397651
N4    N     N_R   0.999999 0.500000 0.906161 -0.396545
N5    N     N_R   0.999999 0.499998 0.406139 -0.397517
N6    N     N_R   0.499997 0.000002 0.593839 -0.396552
N7    N     N_R   0.000001 0.499997 0.593840 -0.396546
N8    N     N_R   0.500000 0.000001 0.406139 -0.397521
O1    O     O_3   0.500000 0.000000 0.750000 -0.450273
O2    O     O_R   0.043010 0.500050 0.700060 -0.539165
O3    O     O_R   0.499950 0.043010 0.299940 -0.539519
O4    O     O_R   0.956990 0.499950 0.700060 -0.539464
O5    O     O_R   0.999950 0.456990 0.200060 -0.539097
O6    O     O_R   0.456990 0.000050 0.799940 -0.539495
O7    O     O_R   0.000050 0.543010 0.200060 -0.539038
O8    O     O_R   0.543010 0.999950 0.799940 -0.539401
O9    O     O_R   0.000050 0.456990 0.799940 -0.539449
O10   O     O_R   0.543010 0.000050 0.200060 -0.539054
O11   O     O_R   0.999950 0.543010 0.799940 -0.539447
O12   O     O_3   0.000000 0.500000 0.250000 -0.450105
O13   O     O_R   0.456990 0.999950 0.200060 -0.539081
O14   O     O_R   0.560430 0.103480 0.736910 -0.538633
O15   O     O_R   0.103480 0.439570 0.263090 -0.538664
O16   O     O_R   0.439570 0.896520 0.736910 -0.538188
O17   O     O_R   0.896520 0.560430 0.263090 -0.538801
O18   O     O_R   0.439570 0.103480 0.263090 -0.538813
O19   O     O_R   0.896520 0.439570 0.736910 -0.538179
O20   O     O_R   0.560430 0.896520 0.263090 -0.538646
O21   O     O_R   0.103480 0.560430 0.736910 -0.538633
O22   O     O_R   0.060430 0.603480 0.236910 -0.539467
O23   O     O_3   0.500000 0.000000 0.250000 -0.450105
O24   O     O_R   0.603480 0.939570 0.763090 -0.538274
O25   O     O_R   0.939570 0.396520 0.236910 -0.539367
O26   O     O_R   0.396520 0.060430 0.763090 -0.538165
O27   O     O_R   0.939570 0.603480 0.763090 -0.538215
O28   O     O_R   0.396520 0.939570 0.236910 -0.539387
O29   O     O_R   0.060430 0.396520 0.763090 -0.538239
O30   O     O_R   0.603480 0.060430 0.236910 -0.539459
O31   O     O_R   0.396500 0.939480 0.763090 -0.518972
O32   O     O_R   0.939480 0.603500 0.236910 -0.518916
O33   O     O_R   0.603500 0.060520 0.763090 -0.519009
O34   O     O_3   1.000000 0.500000 0.750000 -0.450273
O35   O     O_R   0.060520 0.396500 0.236910 -0.518868
O36   O     O_R   0.603500 0.939480 0.236910 -0.518898
O37   O     O_R   0.060520 0.603500 0.763090 -0.518996
O38   O     O_R   0.396500 0.060520 0.236910 -0.518872
O39   O     O_R   0.939480 0.396500 0.763090 -0.518972
O40   O     O_R   0.896500 0.439480 0.263090 -0.518404
O41   O     O_R   0.439480 0.103500 0.736910 -0.519146
O42   O     O_R   0.103500 0.560520 0.263090 -0.518381
O43   O     O_R   0.560520 0.896500 0.736910 -0.519073
O44   O     O_R   0.103500 0.439480 0.736910 -0.519154
O45   O     O_R   0.499950 0.956990 0.700060 -0.539457
O46   O     O_R   0.560520 0.103500 0.263090 -0.518411
O47   O     O_R   0.896500 0.560520 0.736910 -0.519072
O48   O     O_R   0.439480 0.896500 0.263090 -0.518381
O49   O     O_2   0.539610 0.916789 0.905911 -0.491936
O50   O     O_2   0.913900 0.532814 0.094133 -0.487864
O51   O     O_2   0.460389 0.083210 0.905911 -0.491970
O52   O     O_2   0.086100 0.467187 0.094133 -0.487965
O53   O     O_2   0.533074 0.913998 0.094132 -0.487851
O54   O     O_2   0.083333 0.460649 0.905910 -0.491995
O55   O     O_2   0.466927 0.086000 0.094132 -0.487998
O56   O     O_R   0.956990 0.500050 0.299940 -0.539528
O57   O     O_2   0.916666 0.539351 0.905911 -0.491860
O58   O     O_2   0.967024 0.413960 0.405868 -0.488783
O59   O     O_2   0.416658 0.960664 0.594089 -0.491651
O60   O     O_2   0.032974 0.586037 0.405868 -0.489031
O61   O     O_2   0.583337 0.039339 0.594089 -0.492004
O62   O     O_2   0.960495 0.416737 0.594089 -0.491675
O63   O     O_2   0.586104 0.032803 0.405867 -0.488801
O64   O     O_2   0.039508 0.583257 0.594089 -0.492010
O65   O     O_2   0.413895 0.967198 0.405867 -0.489003
O66   O     O_R   0.500050 0.043010 0.700060 -0.539172
O67   O     O_R   0.043010 0.499950 0.299940 -0.539617
O68   O     O_R   0.500050 0.956990 0.299940 -0.539628
Zn1   Zn    Zn3+2 0.561370 0.999980 0.768700 0.966902
Zn2   Zn    Zn3+2 0.499980 0.938630 0.731300 0.967151
Zn3   Zn    Zn3+2 0.938630 0.500020 0.268700 0.966797
Zn4   Zn    Zn3+2 0.500020 0.061370 0.731300 0.966924
Zn5   Zn    Zn3+2 0.938630 0.499980 0.731300 0.967181
Zn6   Zn    Zn3+2 0.500020 0.938630 0.268700 0.966884
Zn7   Zn    Zn3+2 0.061370 0.500020 0.731300 0.966894
Zn8   Zn    Zn3+2 0.499980 0.061370 0.268700 0.966758
Zn9   Zn    Zn3+2 0.999980 0.438630 0.231300 0.966955
Zn10  Zn    Zn3+2 0.438630 0.000020 0.768700 0.967137
Zn11  Zn    Zn3+2 0.000020 0.561370 0.231300 0.966820
Zn12  Zn    Zn3+2 0.438630 0.999980 0.231300 0.966889
Zn13  Zn    Zn3+2 0.000020 0.438630 0.768700 0.967103
Zn14  Zn    Zn3+2 0.561370 0.000020 0.231300 0.966888
Zn15  Zn    Zn3+2 0.999980 0.561370 0.768700 0.966936
Zn16  Zn    Zn3+2 0.061370 0.499980 0.268700 0.966846

loop_
_geom_bond_atom_site_label_1
_geom_bond_atom_site_label_2
_ccdc_geom_bond_type
C6    C32   A    
C45   O16   A    
C78   C115  S    
C2    C202  A    
C198  C260  A    
C98   C152  T    
C12   C23   A    
C168  H92   S    
C91   C127  S    
C132  H80   S    
C76   H2    S    
C73   H35   S    
O31   Zn10  S    
C40   C239  A    
C188  O68   A    
C65   H79   S    
C69   Cl15  S    
C94   H140  S    
C88   H117  S    
C30   H59   S    
C64   C118  S    
C208  N8    S    
O12   Zn3   S    
C215  C228  A    
C83   C119  S    
C25   C211  A    
C254  H19   S    
C199  C260  S    
C42   C237  A    
C80   C116  S    
C60   O46   A    
C61   C115  S    
C56   O47   A    
C81   H109  S    
C83   H129  S    
O32   Zn11  S    
C54   O25   A    
C34   C240  A    
C221  O6    A    
C167  C218  A    
C52   O42   A    
C61   H123  S    
C44   C114  S    
C119  C153  S    
O37   Zn15  S    
C65   Cl12  S    
C7    C33   A    
C183  N7    A    
O35   Zn9   S    
C92   H120  S    
O27   Zn15  S    
C233  C250  A    
C88   C94   S    
C41   C238  A    
C10   C21   A    
C13   C185  A    
C20   C215  A    
C54   C103  S    
C189  H97   S    
C109  C163  T    
C217  C233  A    
C232  O11   A    
C110  C164  T    
C144  C145  S    
C205  N5    S    
C225  C242  A    
C194  H98   S    
C184  C235  A    
C26   C249  A    
C142  C148  S    
O23   Zn6   S    
C226  C244  A    
C48   C105  S    
C168  C254  A    
C128  C162  S    
O17   Zn3   S    
C172  N3    A    
C33   C246  A    
C55   O41   A    
C56   O27   A    
C67   Cl14  S    
C128  C144  S    
C46   H25   S    
O5    Zn9   S    
C47   O32   A    
C127  C145  S    
C212  C225  A    
C144  H85   S    
C133  C139  S    
C27   H55   S    
C232  C257  S    
C44   O15   A    
C71   H52   S    
C82   C118  S    
C89   H118  S    
O33   Zn1   S    
O34   Zn7   S    
C101  C194  A    
C16   C25   A    
C192  H100  S    
C195  C259  A    
C146  C207  A    
C125  C148  S    
C135  C197  A    
C126  C147  S    
C45   C111  S    
C93   H121  S    
C191  H95   S    
C174  O55   S    
C119  C136  S    
C244  H42   S    
C51   O37   A    
C28   C251  A    
C45   O31   A    
C172  C223  A    
C170  O51   S    
C240  H39   S    
C219  C237  A    
C200  C261  A    
C71   C76   S    
C90   C193  A    
C86   H132  S    
O28   Zn12  S    
O19   Zn5   S    
C136  H4    S    
C221  O8    A    
C48   O38   A    
C210  C255  S    
C116  C156  S    
C252  H51   S    
C50   O36   A    
C132  H7    S    
C103  C156  T    
C4    C262  A    
C133  H6    S    
C182  N8    A    
C146  H30   S    
C6    C264  A    
C214  C229  A    
C197  H106  S    
C177  C228  A    
C195  H99   S    
O22   Zn11  S    
C78   H107  S    
C94   H122  S    
C81   C117  S    
C171  C222  A    
C68   C204  A    
O41   Zn4   S    
C139  H73   S    
C217  C235  A    
C70   Cl16  S    
C5    C20   A    
O40   Zn3   S    
C6    C19   A    
O11   Zn15  S    
C94   C130  S    
C175  C226  A    
C66   Cl13  S    
C173  O54   S    
C250  H49   S    
C24   C186  A    
C177  N6    A    
C174  C225  A    
C192  C258  A    
C213  C224  A    
C224  C241  A    
C228  C246  A    
C53   C104  S    
C92   H138  S    
C201  C254  A    
C76   Cl7   S    
C222  C239  A    
C169  N2    A    
C242  H41   S    
C17   C262  A    
C3    C29   A    
C48   O18   A    
C247  H45   S    
C53   O24   A    
C76   C130  S    
C135  H33   S    
C95   H124  S    
C147  H83   S    
C198  H103  S    
C117  C155  S    
C9    C36   A    
C7    C263  A    
C187  H96   S    
C213  C226  A    
O34   Zn5   S    
C131  C141  S    
C37   H65   S    
C179  C255  A    
O47   Zn5   S    
O30   Zn14  S    
C70   C77   S    
C180  O61   S    
C72   C75   S    
C32   H61   S    
C67   C121  S    
C49   C108  S    
C64   Cl11  S    
C203  N3    S    
C28   H56   S    
C221  C253  S    
C115  C158  S    
C201  N1    S    
C239  H38   S    
C167  N1    A    
C91   C92   S    
C91   H137  S    
C141  H16   S    
C183  C234  A    
C68   C191  A    
C79   C205  A    
C188  C261  S    
C52   C100  S    
C82   H128  S    
C121  C151  S    
C181  O62   S    
C146  C198  A    
C125  C165  S    
C88   C125  S    
C73   Cl4   S    
O4    Zn5   S    
O1    Zn2   S    
C8    C12   A    
C35   H23   S    
C124  C196  A    
C129  C161  S    
C122  C132  S    
C8    C34   A    
C85   C121  S    
C214  C227  A    
C235  C252  A    
C170  N1    A    
C82   C83   S    
C71   Cl2   S    
C196  H105  S    
O18   Zn8   S    
C31   C248  A    
C167  O49   S    
C46   C189  A    
C231  C249  A    
C1    O45   A    
C85   H131  S    
C88   H135  S    
C62   H112  S    
C206  N6    S    
C38   C241  A    
C68   H22   S    
C131  C159  S    
C185  H89   S    
C51   O21   A    
C84   H130  S    
C112  O67   A    
C176  O58   S    
C104  C158  T    
C136  C137  S    
C234  C251  A    
C184  O65   S    
C75   Cl6   S    
C211  C219  A    
C83   H111  S    
C21   C212  A    
O56   Zn3   S    
C17   C264  A    
C175  N4    A    
C58   O28   A    
C186  C255  A    
O23   Zn14  S    
C87   C123  S    
O3    Zn8   S    
C173  C224  A    
O26   Zn10  S    
C69   C122  S    
O10   Zn14  S    
O36   Zn14  S    
C118  C154  S    
O13   Zn12  S    
C120  C134  S    
C89   C93   S    
C130  C142  S    
C42   H71   S    
C229  C247  A    
C22   C213  A    
O20   Zn6   S    
C59   C98   S    
C133  H78   S    
C43   C109  S    
C187  C256  A    
C55   O26   A    
O68   Zn6   S    
C95   C131  S    
C215  C230  A    
C216  C234  A    
C73   C74   S    
C117  C138  S    
O1    Zn1   S    
C33   H62   S    
C220  C238  A    
C193  H102  S    
C248  H47   S    
C136  H76   S    
O29   Zn13  S    
C144  H12   S    
C139  H143  S    
C55   C102  S    
C122  C150  S    
C100  C154  T    
C179  H93   S    
C171  N2    A    
O7    Zn11  S    
C185  C253  A    
C39   C236  A    
C63   C117  S    
C93   C129  S    
C190  H94   S    
O1    Zn4   S    
C52   O22   A    
C72   H46   S    
C216  C231  A    
O16   Zn2   S    
C89   H136  S    
C130  C160  S    
C241  H40   S    
C79   H28   S    
C140  H72   S    
C197  C261  A    
C90   C206  A    
C123  C166  S    
C210  O7    A    
C149  H81   S    
C107  C161  T    
C199  O4    A    
C86   C122  S    
C74   H24   S    
C17   C216  A    
C34   H63   S    
C116  C139  S    
C46   C204  A    
C63   C66   S    
C237  H36   S    
C190  C256  A    
C200  H104  S    
C57   H21   S    
C89   C126  S    
O12   Zn11  S    
C43   O33   A    
C32   C247  A    
C36   C244  A    
C173  N4    A    
C15   C41   A    
C60   C97   S    
C138  H74   S    
C142  H15   S    
C73   C127  S    
C85   H114  S    
C243  C256  S    
C72   C126  S    
O34   Zn13  S    
C11   C38   A    
C27   C252  A    
C249  H48   S    
C80   C85   S    
C245  H43   S    
C227  C245  A    
C40   H69   S    
C84   C120  S    
C24   C202  A    
C57   C203  A    
C65   C119  S    
O43   Zn2   S    
C177  O59   S    
C36   H64   S    
C54   O40   A    
O6    Zn10  S    
C143  H86   S    
C26   H54   S    
C62   C67   S    
C207  N7    S    
O9    Zn13  S    
C169  C219  A    
C176  N5    A    
C79   C192  A    
C124  C207  A    
C149  H8    S    
C202  N2    S    
C93   H139  S    
C27   C263  A    
C138  H144  S    
C145  H84   S    
C56   C96   S    
O12   Zn9   S    
C127  C163  S    
C11   C22   A    
C58   C99   S    
C2    H20   S    
C3    C5    A    
C129  C143  S    
C132  C140  S    
O14   Zn4   S    
C223  C240  A    
C64   C65   S    
O39   Zn13  S    
C12   C39   A    
O34   Zn15  S    
C218  C236  A    
C75   H13   S    
C29   C250  A    
C188  O3    A    
C210  O5    A    
C105  C159  T    
C106  C160  T    
C168  C253  A    
C99   C153  T    
C199  O2    A    
C39   H67   S    
C193  C259  A    
C182  O63   S    
C124  H32   S    
O67   Zn16  S    
C191  C257  A    
C14   C25   A    
O23   Zn12  S    
C18   C263  A    
C115  C140  S    
C137  H3    S    
C35   C187  A    
C7    C20   A    
C204  N4    S    
C71   C125  S    
C49   O19   A    
C1    C259  S    
C147  H10   S    
O46   Zn8   S    
C82   H110  S    
C123  C149  S    
C30   C245  A    
C183  O64   S    
O8    Zn1   S    
C41   H70   S    
C141  C149  S    
C143  C147  S    
O1    Zn10  S    
C180  C230  A    
C63   H101  S    
C86   H115  S    
C10   C37   A    
C80   H108  S    
C209  C218  A    
C9    C16   A    
C184  N8    A    
C84   H113  S    
C67   H57   S    
C10   C15   A    
C178  N5    A    
C77   C131  S    
C11   C14   A    
C9    C22   A    
O45   Zn2   S    
O21   Zn7   S    
C134  H5    S    
C3    C18   A    
C196  C260  A    
C243  O10   A    
C145  H11   S    
C182  C233  A    
C4    C19   A    
C70   C123  S    
C47   O17   A    
C69   H1    S    
O2    Zn7   S    
C172  O53   S    
C118  C137  S    
C246  H44   S    
C49   O39   A    
C251  H50   S    
C90   H29   S    
O48   Zn6   S    
C44   O35   A    
C112  C258  S    
C78   C86   S    
C15   C23   A    
C96   C150  T    
C29   H58   S    
C66   C120  S    
C80   H126  S    
C178  O60   S    
C113  C195  A    
C60   O30   A    
C157  C208  A    
C126  C164  S    
C92   C128  S    
C13   H17   S    
C74   Cl5   S    
C114  C166  T    
C141  H88   S    
C170  C220  A    
C97   C151  T    
C74   C128  S    
C77   Cl8   S    
C1    O66   A    
O38   Zn12  S    
C180  N6    A    
C171  O52   S    
C181  N7    A    
C178  C229  A    
C134  H77   S    
C169  O50   S    
C101  H26   S    
C23   C209  A    
C28   C264  A    
C211  C222  A    
C108  C162  T    
C72   Cl3   S    
O66   Zn4   S    
C78   H125  S    
C87   C95   S    
C194  C258  A    
C62   Cl9   S    
C53   O43   A    
C62   C116  S    
C24   H18   S    
C63   Cl10  S    
C87   H116  S    
O12   Zn16  S    
C8    C21   A    
C137  H75   S    
O15   Zn16  S    
C61   Cl1   S    
C101  C205  A    
C111  C165  T    
C236  H34   S    
C120  C152  S    
C148  H82   S    
C59   O44   A    
C142  H87   S    
C2    C179  A    
C243  O13   A    
C16   C42   A    
C81   C84   S    
C230  C248  A    
C61   C69   S    
C176  C227  A    
C38   H66   S    
C37   C242  A    
C157  H31   S    
C209  C220  A    
C50   O20   A    
C43   O14   A    
C175  O57   S    
C112  O56   A    
O24   Zn1   S    
C134  C138  S    
C143  H14   S    
C26   C262  A    
C47   C110  S    
C238  H37   S    
C189  C257  A    
C77   H134  S    
C19   C214  A    
O42   Zn16  S    
C113  C206  A    
C59   O29   A    
C57   C190  A    
C232  O9    A    
C35   C203  A    
C50   C107  S    
C181  C231  A    
C51   C106  S    
O25   Zn9   S    
C148  H9    S    
C95   H141  S    
C113  H27   S    
C13   C201  A    
C91   H119  S    
C140  H142  S    
C186  H91   S    
C64   H90   S    
C14   C40   A    
C87   H133  S    
O23   Zn8   S    
C174  N3    A    
C70   H53   S    
O44   Zn7   S    
C58   O48   A    
C66   H68   S    
C157  C200  A    
C121  C133  S    
C81   H127  S    
C18   C217  A    
C102  C155  T    
C4    C30   A    
C31   H60   S    
C75   C129  S    
C135  C208  A    
C5    C31   A    
C212  C223  A    
