data_mof_unit_pretest_210.cif
_audit_creation_date              2012-12-11T15:23:40-0500
_audit_creation_method            fapswitch 2.2
_symmetry_space_group_name_H-M    P1
_symmetry_Int_Tables_number       1
_space_group_crystal_system       triclinic
_cell_length_a                    6.934129
_cell_length_b                    17.498148
_cell_length_c                    19.266232
_cell_angle_alpha                 109.462482
_cell_angle_beta                  90.232238
_cell_angle_gamma                 90.442091
_cell_volume                      2203.96296499

loop_
_atom_site_label
_atom_site_type_symbol
_atom_type_description
_atom_site_fract_x
_atom_site_fract_y
_atom_site_fract_z
_atom_type_partial_charge
O1    O     O_R   0.505810 0.439670 0.562310 -0.537555
O2    O     O_R   0.169070 0.404920 0.411210 -0.540469
O3    O     O_R   0.005550 0.560330 0.437690 -0.539974
C1    C     C_R   0.338678 0.381513 0.382943 0.677041
O4    O     O_R   0.175650 0.430000 0.560110 -0.541553
O5    O     O_R   0.012170 0.585580 0.587650 -0.538092
C2    C     C_R   0.344678 0.414865 0.581731 0.707060
O6    O     O_R   0.499180 0.414420 0.412350 -0.540914
O7    O     O_3   0.341430 0.551020 0.508860 -0.368421
V1    V     V_3+5 0.063930 0.490540 0.498360 1.396133
O8    O     O_R   0.682850 0.595080 0.588790 -0.542153
C3    C     C_R   0.852644 0.618376 0.616936 0.680083
O9    O     O_R   0.676280 0.570000 0.439890 -0.542086
C4    C     C_R   0.845090 0.585181 0.418270 0.708876
V2    V     V_3+5 0.564760 0.509460 0.501640 1.398084
O10   O     O_3   0.837130 0.448980 0.491140 -0.368811
C5    C     C_R   0.068956 0.865235 0.178545 -0.224906
C6    C     C_R   0.914990 0.864801 0.130565 -0.083946
C7    C     C_R   0.749578 0.817523 0.130332 -0.224112
C8    C     C_R   0.737929 0.770624 0.176858 0.089465
C9    C     C_R   0.891659 0.772435 0.225639 0.052625
C10   C     C_R   0.057300 0.820245 0.226708 0.090701
C11   C     C_R   0.575206 0.721924 0.175530 -0.191604
C12   C     C_R   0.563439 0.676296 0.222848 -0.183530
C13   C     C_R   0.713889 0.678717 0.272520 0.090372
C14   C     C_R   0.879576 0.726485 0.273538 0.052644
C15   C     C_R   0.033271 0.728349 0.322347 0.089753
C16   C     C_R   0.196195 0.776886 0.323551 -0.191676
C17   C     C_R   0.207952 0.822515 0.276248 -0.184847
C18   C     C_R   0.701957 0.633991 0.320919 -0.224191
C19   C     C_R   0.855727 0.634665 0.369067 -0.084284
C20   C     C_R   0.021351 0.681732 0.369090 -0.223484
H1    H     H_    0.196329 0.901911 0.179449 0.122761
H2    H     H_    0.630724 0.816489 0.093270 0.126498
H3    H     H_    0.456175 0.719550 0.138222 0.133095
H4    H     H_    0.435738 0.639548 0.220963 0.134846
H5    H     H_    0.574525 0.597381 0.320105 0.123038
H6    H     H_    0.140163 0.682865 0.406200 0.126829
H7    H     H_    0.315293 0.779210 0.360817 0.133173
H8    H     H_    0.335707 0.859222 0.278100 0.133882
C21   C     C_3   0.811729 0.816836 0.741459 -0.140470
C22   C     C_3   0.981092 0.767287 0.696670 -0.139309
H9    H     H_    0.059469 0.781184 0.652112 0.101833
H10   H     H_    0.751231 0.872605 0.734883 0.098811
C23   C     C_3   0.867442 0.688598 0.687659 -0.007547
C24   C     C_3   0.697931 0.737316 0.731632 -0.116067
C25   C     C_3   0.789934 0.732509 0.803477 -0.139548
C26   C     C_3   0.959293 0.682953 0.758681 -0.140712
C27   C     C_3   0.073093 0.762476 0.768512 -0.115999
C28   C     C_3   0.903584 0.811203 0.812480 -0.007487
H11   H     H_    0.543396 0.726558 0.715901 0.106020
H12   H     H_    0.711570 0.718602 0.848034 0.101727
H13   H     H_    0.019767 0.627180 0.765261 0.098088
H14   H     H_    0.227628 0.773230 0.784244 0.105968
C29   C     C_3   0.556571 0.282090 0.277299 -0.104115
C30   C     C_3   0.493568 0.193116 0.263461 -0.148159
H15   H     H_    0.584099 0.146261 0.274372 0.101032
H16   H     H_    0.699075 0.308406 0.299852 0.113968
C31   C     C_3   0.413339 0.189125 0.187793 -0.008977
C32   C     C_3   0.475781 0.277354 0.200904 -0.146321
C33   C     C_3   0.277509 0.307138 0.236348 -0.145704
C34   C     C_3   0.214507 0.218161 0.222505 -0.102514
C35   C     C_3   0.295296 0.222890 0.298894 -0.149312
C36   C     C_3   0.357737 0.311118 0.312020 -0.010316
H17   H     H_    0.551549 0.299555 0.160570 0.105716
H18   H     H_    0.186983 0.353992 0.225432 0.103861
H19   H     H_    0.072002 0.191849 0.199948 0.114270
H20   H     H_    0.219504 0.200682 0.339216 0.102279
C37   C     C_R   0.554585 0.126687 0.814585 -0.219975
C38   C     C_R   0.416135 0.135293 0.869594 -0.109632
C39   C     C_R   0.265075 0.190628 0.877028 -0.190490
C40   C     C_R   0.251001 0.237709 0.830363 0.014804
C41   C     C_R   0.388739 0.227007 0.774000 -0.019039
C42   C     C_R   0.541002 0.171479 0.766342 0.105402
C43   C     C_R   0.103318 0.295583 0.839699 0.404832
C44   C     C_R   0.094612 0.341219 0.791302 -0.284949
C45   C     C_R   0.227169 0.329036 0.733984 0.042757
C46   C     C_R   0.377360 0.273076 0.726217 0.041881
C47   C     C_R   0.518675 0.264330 0.671546 0.110082
C48   C     C_R   0.669396 0.209315 0.664827 -0.194857
C49   C     C_R   0.679985 0.163062 0.711555 -0.197423
C50   C     C_R   0.214974 0.373829 0.685555 -0.194305
C51   C     C_R   0.354932 0.365418 0.630958 -0.086353
C52   C     C_R   0.507752 0.311193 0.624920 -0.220594
H21   H     H_    0.671455 0.084208 0.808708 0.120452
H22   H     H_    0.159513 0.197239 0.919910 0.165647
H23   H     H_    0.987754 0.388045 0.799231 0.129404
H24   H     H_    0.099100 0.416760 0.691426 0.117042
H25   H     H_    0.616803 0.304724 0.583215 0.123635
H26   H     H_    0.779617 0.202195 0.623492 0.129897
H27   H     H_    0.798494 0.121370 0.705441 0.127702
O11   O     O_R   0.271890 0.085690 0.087580 -0.540993
O12   O     O_R   0.595690 0.070020 0.939870 -0.539706
O13   O     O_R   0.758900 0.914390 0.912370 -0.538305
C53   C     C_R   0.426676 0.085426 0.918432 0.712847
O14   O     O_R   0.602020 0.095100 0.088770 -0.540312
O15   O     O_R   0.765280 0.939660 0.062330 -0.540428
C54   C     C_R   0.432393 0.118637 0.116945 0.676879
O16   O     O_R   0.265520 0.060430 0.937620 -0.538613
O17   O     O_3   0.429560 0.949050 0.991100 -0.369286
V3    V     V_3+5 0.707160 0.009450 0.001650 1.401770
O18   O     O_R   0.094540 0.929890 0.060190 -0.542705
C55   C     C_R   0.925637 0.914601 0.081640 0.707132
O19   O     O_R   0.088200 0.904800 0.911290 -0.542412
C56   C     C_R   0.918402 0.881494 0.883153 0.679427
V4    V     V_3+5 0.206300 0.990390 0.998440 1.400500
O20   O     O_3   0.934030 0.050940 0.008900 -0.367295
O21   O     O_3   0.987439 0.312811 0.901937 -0.580473
C57   C     C_3   0.792469 0.327510 0.888654 0.078795
H28   H     H_    0.701224 0.287950 0.909996 0.152990
H29   H     H_    0.753799 0.312094 0.829465 0.126808
C58   C     C_3   0.742634 0.415755 0.930996 -0.319233
H30   H     H_    0.767301 0.428122 0.990809 0.205177
H31   H     H_    0.837627 0.457030 0.913174 0.191840
C59   C     C_3   0.532638 0.433415 0.918361 -0.822431
H32   H     H_    0.505745 0.423076 0.859036 0.235585
H33   H     H_    0.500464 0.497626 0.950031 0.229955
H34   H     H_    0.434710 0.393831 0.937149 0.245196

loop_
_geom_bond_atom_site_label_1
_geom_bond_atom_site_label_2
_ccdc_geom_bond_type
V3    O20   S    
C2    C51   S    
C9    C14   A    
O13   C56   A    
C10   C17   A    
C21   C22   S    
C7    C8    A    
C4    C19   S    
C1    O6    A    
O19   V4    S    
O11   C54   A    
C23   C24   S    
C30   H15   S    
C14   C15   A    
C12   H4    S    
C34   H19   S    
C51   C52   A    
C9    C10   A    
C16   C17   A    
C57   H29   S    
O5    C3    A    
C47   C52   A    
C53   O16   A    
V4    O20   S    
V2    O10   S    
O21   C57   S    
C6    C7    A    
C41   C42   A    
O19   C56   A    
O9    C4    A    
C35   H20   S    
O8    V2    S    
C33   H18   S    
C25   C26   S    
O13   V3    S    
C59   H33   S    
O14   C54   A    
C28   C56   S    
C21   C24   S    
C38   C39   A    
O1    V2    S    
C20   H6    S    
O7    V1    S    
C31   C32   S    
O12   C53   A    
C27   H14   S    
C29   C32   S    
C37   C38   A    
C5    H1    S    
C40   C43   A    
C58   H31   S    
C58   H30   S    
C25   C28   S    
C26   H13   S    
O18   C55   A    
C12   C13   A    
C57   C58   S    
O12   V3    S    
O4    C2    A    
C46   C47   A    
C40   C41   A    
C16   H7    S    
C13   C14   A    
C45   C46   A    
C41   C46   A    
C24   H11   S    
C47   C48   A    
C18   H5    S    
C32   C33   S    
C22   C23   S    
C33   C36   S    
O2    C1    A    
C43   C44   A    
C34   C35   S    
C39   H22   S    
C19   C20   A    
C8    C11   A    
C11   C12   A    
C59   H34   S    
C29   C36   S    
C29   C30   S    
C5    C6    A    
C30   C35   S    
C37   C42   A    
C44   C45   A    
C44   H23   S    
O15   C55   A    
O3    C4    A    
O11   V4    S    
C26   C27   S    
C32   H17   S    
C50   C51   A    
O6    V2    S    
C11   H3    S    
O9    V2    S    
C21   H10   S    
C22   H9    S    
C42   C49   A    
O2    V1    S    
C21   C28   S    
C37   H21   S    
C23   C26   S    
C13   C18   A    
O16   V4    S    
C24   C25   S    
C31   C34   S    
C15   C20   A    
O1    C2    A    
C48   C49   A    
C7    H2    S    
O5    V1    S    
O8    C3    A    
C25   H12   S    
C3    C23   S    
C1    C36   S    
O17   V4    S    
C5    C10   A    
C30   C31   S    
C38   C53   S    
O7    V2    S    
O4    V1    S    
O3    V1    S    
V1    O10   S    
C57   H28   S    
C18   C19   A    
C45   C50   A    
C50   H24   S    
C17   H8    S    
O17   V3    S    
O18   V4    S    
C6    C55   S    
C48   H26   S    
C33   C34   S    
C22   C27   S    
C35   C36   S    
C49   H27   S    
C43   O21   S    
C39   C40   A    
C8    C9    A    
C27   C28   S    
C52   H25   S    
C29   H16   S    
C15   C16   A    
C31   C54   S    
O14   V3    S    
C58   C59   S    
O15   V3    S    
C59   H32   S    
