data_mof_unit_pretest_1158.cif
_audit_creation_date              2012-10-26T18:53:12-0400
_audit_creation_method            fapswitch 2.2
_symmetry_space_group_name_H-M    P1
_symmetry_Int_Tables_number       1
_space_group_crystal_system       triclinic
_cell_length_a                    14.720598
_cell_length_b                    14.715396
_cell_length_c                    15.87456
_cell_angle_alpha                 76.898597
_cell_angle_beta                  102.746221
_cell_angle_gamma                 114.810866
_cell_volume                      3009.29362442

loop_
_atom_site_label
_atom_site_type_symbol
_atom_type_description
_atom_site_fract_x
_atom_site_fract_y
_atom_site_fract_z
_atom_type_partial_charge
C1    C     C_R   0.880346 0.312313 0.514956 0.546721
C2    C     C_R   0.187334 0.794912 0.484111 -0.003573
C3    C     C_R   0.783822 0.026965 0.553218 -0.136929
C4    C     C_R   0.999685 0.499976 0.659661 0.554516
C5    C     C_R   0.850257 0.128221 0.544990 -0.137212
C6    C     C_R   0.708423 0.178876 0.516974 -0.137714
C7    C     C_R   0.639952 0.077376 0.527466 0.030838
C8    C     C_R   0.679211 0.001046 0.543563 0.050494
C9    C     C_R   0.533696 0.049893 0.519755 0.031342
C10   C     C_R   0.467515 0.946370 0.519300 0.030821
C11   C     C_R   0.510058 0.872522 0.536613 -0.140587
C12   C     C_3   0.043135 0.423186 0.073385 -0.213440
C13   C     C_R   0.613845 0.899632 0.549285 -0.134974
C14   C     C_R   0.491578 0.122132 0.514087 -0.139411
C15   C     C_R   0.387841 0.094872 0.503149 -0.135851
C16   C     C_R   0.119635 0.687665 0.486153 0.539579
C17   C     C_R   0.322046 0.995157 0.496544 0.049557
C18   C     C_R   0.360988 0.920023 0.503552 0.031632
C19   C     C_R   0.217267 0.969604 0.483608 -0.136586
C20   C     C_R   0.150236 0.869826 0.478254 -0.140126
C21   C     C_R   0.291632 0.821046 0.493790 -0.133905
C22   C     C_R   0.716974 0.670346 0.356970 -0.160356
C23   C     C_3   0.000452 0.499786 0.082890 0.070224
C24   C     C_R   0.798003 0.640082 0.379439 0.040647
C25   C     C_R   0.714094 0.508347 0.487160 0.035927
C26   C     C_R   0.628555 0.534981 0.467116 0.001894
C27   C     C_R   0.632314 0.618545 0.400805 0.038978
C28   C     C_R   0.000290 0.499970 0.340340 0.547951
C29   C     C_R   0.540817 0.483016 0.510671 0.023809
C30   C     C_R   0.458757 0.516681 0.487484 0.026879
C31   C     C_R   0.467427 0.601276 0.421678 -0.144296
C32   C     C_R   0.552218 0.650567 0.379134 -0.131406
C33   C     C_R   0.532408 0.398591 0.576570 -0.144157
C34   C     C_3   0.066426 0.606536 0.039952 -0.214653
C35   C     C_R   0.448267 0.349855 0.619636 -0.134063
C36   C     C_R   0.368433 0.382105 0.598345 0.018976
C37   C     C_R   0.371194 0.464834 0.531453 -0.006768
C38   C     C_R   0.285285 0.331353 0.643672 -0.155706
C39   C     C_R   0.203732 0.361183 0.622193 0.252541
C40   C     C_3   0.042573 0.423268 0.975619 -0.213842
C41   C     C_R   0.285173 0.490872 0.511639 0.008780
C42   C     C_3   0.890671 0.469817 0.935569 -0.214141
C43   C     C_3   0.891226 0.469728 0.033331 -0.212938
C44   C     C_1   0.000853 0.499786 0.250765 -0.037713
C45   C     C_3   0.065864 0.606626 0.942189 -0.213336
C46   C     C_3   0.999510 0.499935 0.917128 0.070304
C47   C     C_1   0.000872 0.499735 0.175184 -0.078487
C48   C     C_1   0.999083 0.500018 0.824834 -0.077893
C49   C     C_1   0.999098 0.500047 0.749241 -0.036056
C50   C     C_R   0.812675 0.204712 0.525919 -0.003350
Cu1   Cu    Cu3+1 0.081750 0.475690 0.522550 0.965319
Cu2   Cu    Cu3+1 0.918250 0.524310 0.477450 0.930956
H1    H     H_    0.996878 0.345701 0.103657 0.114618
H2    H     H_    0.930634 0.146533 0.552177 0.127166
H3    H     H_    0.682157 0.239624 0.499195 0.120605
H4    H     H_    0.996050 0.345819 0.958995 0.113705
H5    H     H_    0.465493 0.792303 0.543380 0.106080
H6    H     H_    0.536713 0.200388 0.520552 0.101057
H7    H     H_    0.187212 0.026671 0.478841 0.104358
H8    H     H_    0.555339 0.715069 0.328888 0.107608
H9    H     H_    0.279549 0.550800 0.460192 0.117041
H10   H     H_    0.445579 0.285708 0.670197 0.107171
H11   H     H_    0.720791 0.734362 0.306036 0.088548
H12   H     H_    0.120943 0.443344 0.963683 0.115090
H13   H     H_    0.863811 0.680602 0.346225 0.123969
H14   H     H_    0.719047 0.447532 0.537814 0.117147
H15   H     H_    0.858013 0.523929 0.894390 0.115659
H16   H     H_    0.409886 0.631947 0.401560 0.091256
H17   H     H_    0.589823 0.367810 0.596827 0.087618
H18   H     H_    0.283206 0.268430 0.695455 0.084711
H19   H     H_    0.841408 0.393214 0.918210 0.113817
H20   H     H_    0.842214 0.393080 0.062865 0.115460
H21   H     H_    0.858818 0.523792 0.039045 0.115344
H22   H     H_    0.144656 0.630028 0.929646 0.115450
H23   H     H_    0.121772 0.443243 0.108343 0.115845
H24   H     H_    0.036363 0.663208 0.901139 0.114216
H25   H     H_    0.145483 0.629883 0.074306 0.113439
H26   H     H_    0.090008 0.232524 0.662853 0.194283
H27   H     H_    0.144835 0.315471 0.735057 0.201680
H28   H     H_    0.037199 0.663080 0.045795 0.112958
H29   H     H_    0.643085 0.840570 0.562506 0.112388
H30   H     H_    0.316741 0.762487 0.492709 0.115289
H31   H     H_    0.069745 0.851172 0.470707 0.126801
H32   H     H_    0.358938 0.152614 0.499467 0.114371
H33   H     H_    0.814183 0.968793 0.566417 0.103893
N1    N     N_R   0.795410 0.560790 0.443550 -0.232448
N2    N     N_R   0.204590 0.439170 0.556520 -0.201820
N3    N     N_3   0.118974 0.309255 0.668929 -0.550227
O1    O     O_R   0.977910 0.338120 0.529720 -0.470431
O2    O     O_R   0.839850 0.379180 0.491640 -0.516175
O3    O     O_R   0.069060 0.479460 0.639610 -0.461636
O4    O     O_R   0.931000 0.520530 0.601530 -0.502267
O5    O     O_R   0.160150 0.620820 0.508360 -0.515363
O6    O     O_R   0.022090 0.661880 0.470280 -0.508927
O7    O     O_R   0.069000 0.479470 0.398470 -0.502379
O8    O     O_R   0.930940 0.520540 0.360390 -0.496181

loop_
_geom_bond_atom_site_label_1
_geom_bond_atom_site_label_2
_ccdc_geom_bond_type
C43   H21   S    
C38   H18   S    
C8    C13   A    
C29   C33   A    
C3    H33   S    
C18   C21   A    
Cu2   O2    S    
C19   C20   A    
C41   H9    S    
C6    H3    S    
C7    C8    A    
C45   C46   S    
C40   C46   S    
C12   C23   S    
C16   O5    A    
C1    O2    A    
C45   H24   S    
C36   C37   A    
C34   H25   S    
C30   C31   A    
C13   H29   S    
C23   C43   S    
C7    C9    A    
C42   C46   S    
C42   H19   S    
Cu1   O3    S    
C22   H11   S    
C35   C36   A    
C40   H4    S    
Cu2   O6    S    
C39   N2    A    
C2    C16   S    
C1    C50   S    
C12   H1    S    
C44   C47   T    
C33   H17   S    
C4    O3    A    
C34   H28   S    
C39   N3    S    
C14   H6    S    
H27   N3    S    
C31   H16   S    
C41   N2    A    
C46   C48   S    
C23   C47   S    
C2    C20   A    
Cu1   Cu2   S    
C5    H2    S    
C3    C8    A    
Cu1   N2    S    
C17   C19   A    
C19   H7    S    
C25   C26   A    
C28   C44   S    
C30   C37   A    
C45   H22   S    
C12   C40   S    
C9    C14   A    
C29   C30   A    
C31   C32   A    
C23   C34   S    
C2    C21   A    
C17   C18   A    
C26   C27   A    
C34   C45   S    
C6    C50   A    
C15   H32   S    
C24   H13   S    
Cu1   O5    S    
C48   C49   T    
C22   C27   A    
C28   O7    A    
C42   H15   S    
C22   C24   A    
C5    C50   A    
Cu2   O4    S    
C42   C43   S    
C32   H8    S    
C9    C10   A    
H26   N3    S    
C15   C17   A    
C43   H20   S    
C1    O1    A    
C27   C32   A    
C25   H14   S    
C3    C5    A    
C6    C7    A    
C16   O6    A    
C40   H12   S    
C4    C49   S    
C28   O8    A    
Cu2   N1    S    
Cu1   O1    S    
C11   C13   A    
C38   C39   A    
C10   C18   A    
C36   C38   A    
C25   N1    A    
C33   C35   A    
Cu2   O8    S    
C35   H10   S    
C37   C41   A    
C10   C11   A    
C12   H23   S    
C21   H30   S    
C26   C29   A    
C20   H31   S    
C14   C15   A    
C11   H5    S    
C24   N1    A    
Cu1   O7    S    
C4    O4    A    
