data_mof_unit_pretest_612.cif
_audit_creation_date              2013-03-05T15:50:59-0500
_audit_creation_method            fapswitch 2.2
_symmetry_space_group_name_H-M    P1
_symmetry_Int_Tables_number       1
_space_group_crystal_system       triclinic
_cell_length_a                    11.742122
_cell_length_b                    10.838127
_cell_length_c                    9.826469
_cell_angle_alpha                 89.783307
_cell_angle_beta                  91.474997
_cell_angle_gamma                 94.070498
_cell_volume                      1246.97183677

loop_
_atom_site_label
_atom_site_type_symbol
_atom_site_description
_atom_site_fract_x
_atom_site_fract_y
_atom_site_fract_z
_atom_type_partial_charge
O1    O     O_R   0.499990 0.319640 0.618810 -0.562078
O2    O     O_R   0.500000 0.319660 0.381240 -0.577195
C1    C     C_R   0.498792 0.261674 0.499635 0.798960
O3    O     O_R   0.337190 0.500000 0.618790 -0.528670
O4    O     O_R   0.337200 0.500030 0.381210 -0.615617
C2    C     C_R   0.284567 0.498148 0.498534 0.837331
Cu1   Cu    Cu3+1 0.499990 0.499990 0.640660 1.001477
Cu2   Cu    Cu3+1 0.500010 0.500010 0.359340 0.930741
O5    O     O_R   0.500000 0.680340 0.618760 -0.550507
O6    O     O_R   0.500010 0.680360 0.381190 -0.571544
O7    O     O_R   0.662800 0.499970 0.618790 -0.547362
O8    O     O_R   0.662810 0.500000 0.381210 -0.577886
C3    C     C_R   0.484406 0.734506 0.499464 0.869025
C4    C     C_R   0.715058 0.496898 0.501311 0.807382
C5    C     C_1   0.162253 0.494995 0.495836 -0.104388
C6    C     C_1   0.059520 0.492520 0.496569 0.063900
C7    C     C_1   0.939337 0.491138 0.499989 0.037436
C8    C     C_1   0.836846 0.492693 0.502808 -0.151771
C9    C     C_R   0.564839 0.103121 0.738134 -0.111345
H1    H     H_    0.618429 0.188432 0.739980 0.170550
C10   C     C_R   0.545342 0.039302 0.860949 -0.204080
H2    H     H_    0.586882 0.075780 0.952864 0.147034
C11   C     C_R   0.462145 0.938524 0.864737 0.153719
C12   C     C_R   0.419714 0.888601 0.740298 0.233718
C13   C     C_R   0.471276 0.931999 0.621341 0.008703
C14   C     C_R   0.512292 0.055376 0.616962 0.022630
C15   C     C_R   0.486770 0.124110 0.497462 -0.145473
C16   C     C_R   0.424938 0.058820 0.387263 0.107312
C17   C     C_R   0.410697 0.927512 0.392002 0.105989
C18   C     C_R   0.458604 0.866304 0.501276 -0.165860
C19   C     C_R   0.686972 0.621149 0.143540 0.195753
C20   C     C_R   0.794355 0.603459 0.088192 0.039417
C21   C     C_R   0.797813 0.581605 0.947415 0.105924
C22   C     C_R   0.697912 0.592526 0.869564 0.190546
C23   C     C_R   0.593093 0.553573 0.929267 0.003955
C24   C     C_R   0.592216 0.555299 0.076880 0.031176
N1    N     N_R   0.501070 0.501210 0.147910 -0.223871
C25   C     C_R   0.406859 0.457761 0.066886 0.130945
C26   C     C_R   0.416739 0.438791 0.923373 0.287583
N2    N     N_R   0.501110 0.501290 0.852040 -0.216690
C27   C     C_3   0.370047 0.125605 0.269091 -0.315963
C28   C     C_3   0.456242 0.158053 0.157937 -0.806284
H3    H     H_    0.487286 0.255932 0.158188 0.280958
H4    H     H_    0.532594 0.103949 0.169929 0.230816
H5    H     H_    0.414748 0.141351 0.056970 0.248104
H6    H     H_    0.297767 0.069061 0.221892 0.218766
H7    H     H_    0.329159 0.207966 0.305167 0.194745
I1    I     I_    0.950633 0.559188 0.843561 -0.375494
I2    I     I_    0.715676 0.762823 0.761433 -0.358672
I3    I     I_    0.317844 0.287465 0.828004 -0.368053
C29   C     C_3   0.414696 0.893568 0.998509 -0.400685
C30   C     C_3   0.388787 0.753793 0.005620 -0.763740
H8    H     H_    0.295658 0.729875 0.994691 0.277306
H9    H     H_    0.433610 0.706849 0.926004 0.270588
H10   H     H_    0.414282 0.717627 0.105702 0.254088
H11   H     H_    0.476852 0.919496 0.081693 0.209723
H12   H     H_    0.334881 0.939585 0.016065 0.247701
I4    I     I_    0.255205 0.789238 0.716495 -0.316046
I5    I     I_    0.267134 0.826000 0.299616 -0.482584
C31   C     C_3   0.287852 0.457627 0.123019 -0.358974
C32   C     C_3   0.185389 0.460712 0.024602 -0.817103
H13   H     H_    0.206280 0.516062 0.932087 0.295878
H14   H     H_    0.149628 0.366080 0.998841 0.287416
H15   H     H_    0.116705 0.505166 0.076325 0.249996
H16   H     H_    0.272173 0.378830 0.193610 0.226418
H17   H     H_    0.285623 0.548718 0.172685 0.262738
C33   C     C_3   0.671451 0.755046 0.183583 -0.359941
C34   C     C_3   0.728544 0.800007 0.318153 -0.754381
H18   H     H_    0.720591 0.728974 0.398734 0.261573
H19   H     H_    0.819778 0.829099 0.305085 0.248402
H20   H     H_    0.687195 0.882802 0.353440 0.228668
H21   H     H_    0.703826 0.817727 0.101137 0.195024
H22   H     H_    0.580674 0.771450 0.187497 0.223387
C35   C     C_3   0.902187 0.623133 0.174454 -0.351980
C36   C     C_3   0.974509 0.741008 0.136410 -0.721136
H23   H     H_    0.921613 0.810732 0.087748 0.262001
H24   H     H_    0.015533 0.782818 0.229778 0.256475
H25   H     H_    0.043256 0.720073 0.066679 0.279103
H26   H     H_    0.879912 0.629959 0.282396 0.212249
H27   H     H_    0.952190 0.540704 0.168049 0.202044

loop_
_geom_bond_atom_site_label_1
_geom_bond_atom_site_label_2
_geom_bond_distance
_ccdc_geom_bond_type
C27   C28   1.531179 S    
C4    C8    1.433711 S    
C23   C24   1.451016 A    
Cu1   Cu2   2.764388 S    
C19   C33   1.529567 S    
C14   C15   1.424995 A    
C17   C18   1.387814 A    
C27   H6    1.104100 S    
C24   N1    1.386554 A    
C9    C10   1.404527 A    
C33   H21   1.112386 S    
C20   C35   1.508295 S    
C25   C26   1.434731 A    
O7    C4    1.322848 A    
C5    C6    1.204904 T    
C16   C27   1.519576 S    
C22   C23   1.413796 A    
C32   H14   1.108013 S    
C9    C14   1.409871 A    
O5    C3    1.323388 A    
C2    C5    1.433772 S    
C9    H1    1.080809 S    
C34   H18   1.103360 S    
Cu1   N2    2.076918 S    
C29   H12   1.110031 S    
C30   H10   1.099556 S    
C31   H17   1.105220 S    
C35   H27   1.106179 S    
C10   H2    1.078265 S    
C28   H4    1.109133 S    
O3    Cu1   1.918163 S    
C30   H9    1.100072 S    
C7    C8    1.205807 T    
C35   C36   1.533541 S    
C33   C34   1.532425 S    
C17   I5    2.131146 S    
C3    C18   1.481372 S    
C12   C13   1.394996 A    
O3    C2    1.318870 A    
C26   N2    1.366945 A    
C6    C7    1.411480 S    
C13   C14   1.389622 A    
C29   C30   1.525524 S    
C31   C32   1.526257 S    
O1    C1    1.330318 A    
C28   H5    1.103841 S    
C32   H15   1.104086 S    
Cu1   O7    1.929281 S    
C36   H23   1.110902 S    
N1    C25   1.401058 A    
C11   C29   1.506671 S    
C19   C20   1.411688 A    
Cu2   O8    1.918161 S    
C21   C22   1.395742 A    
C27   H7    1.106793 S    
C36   H24   1.108393 S    
C25   C31   1.515371 S    
C33   H22   1.094676 S    
C12   I4    2.151547 S    
O8    C4    1.317448 A    
C31   H16   1.106425 S    
C35   H26   1.102977 S    
C10   C11   1.413790 A    
Cu2   N1    2.077954 S    
C30   H8    1.108359 S    
C13   C18   1.379615 A    
Cu1   O5    1.965650 S    
C16   C17   1.421811 A    
C22   I2    2.126275 S    
O1    Cu1   1.967220 S    
Cu2   O6    1.967220 S    
O2    Cu2   1.965650 S    
C29   H11   1.105308 S    
O6    C3    1.326687 A    
O4    Cu2   1.929282 S    
C20   C21   1.406446 A    
C1    C15   1.487773 S    
O2    C1    1.320128 A    
O4    C2    1.321444 A    
C34   H20   1.110888 S    
C23   N2    1.392013 A    
C32   H13   1.110377 S    
C36   H25   1.108271 S    
C11   C12   1.404143 A    
C26   I3    2.145180 S    
C34   H19   1.105608 S    
C28   H3    1.096960 S    
C15   C16   1.446668 A    
C21   I1    2.116257 S    
C19   C24   1.424666 A    
