data_mof_unit_pretest_1203.cif
_audit_creation_date              2012-12-11T15:33:44-0500
_audit_creation_method            fapswitch 2.2
_symmetry_space_group_name_H-M    P1
_symmetry_Int_Tables_number       1
_space_group_crystal_system       triclinic
_cell_length_a                    27.095556
_cell_length_b                    7.264166
_cell_length_c                    22.673029
_cell_angle_alpha                 90.000209
_cell_angle_beta                  101.151648
_cell_angle_gamma                 90.000073
_cell_volume                      4378.39494062

loop_
_atom_site_label
_atom_site_type_symbol
_atom_type_description
_atom_site_fract_x
_atom_site_fract_y
_atom_site_fract_z
_atom_type_partial_charge
O1    O     O_R   0.207310 0.594030 0.676830 -0.533648
O2    O     O_R   0.792690 0.405970 0.323170 -0.534281
O3    O     O_R   0.292690 0.094030 0.823170 -0.533650
O4    O     O_R   0.707310 0.905970 0.176830 -0.534281
O5    O     O_R   0.197320 0.262370 0.795700 -0.530695
O6    O     O_R   0.802680 0.737630 0.204300 -0.493641
O7    O     O_R   0.302680 0.762370 0.704300 -0.530695
O8    O     O_R   0.697320 0.237630 0.295700 -0.493640
C1    C     C_R   0.183780 0.432299 0.810603 0.728654
C2    C     C_R   0.816489 0.567099 0.189407 0.738197
C3    C     C_R   0.316220 0.932299 0.689397 0.728655
C4    C     C_R   0.683511 0.067099 0.310592 0.738197
O9    O     O_R   0.201410 0.264250 0.675590 -0.528383
O10   O     O_R   0.798590 0.735750 0.324410 -0.535229
O11   O     O_R   0.298590 0.764250 0.824410 -0.528384
O12   O     O_R   0.701410 0.235750 0.175590 -0.535228
O13   O     O_R   0.296810 0.094940 0.702210 -0.528375
O14   O     O_R   0.703190 0.905060 0.297790 -0.534365
O15   O     O_R   0.203190 0.594940 0.797790 -0.528378
O16   O     O_R   0.796810 0.405060 0.202210 -0.534366
C5    C     C_R   0.189750 0.432830 0.653586 0.662534
C6    C     C_R   0.809953 0.567323 0.346602 0.663626
C7    C     C_R   0.310250 0.932831 0.846414 0.662533
C8    C     C_R   0.690047 0.067322 0.153398 0.663625
O17   O     O_3   0.281300 0.427390 0.758870 -0.372647
O18   O     O_3   0.718700 0.572610 0.241130 -0.369346
O19   O     O_3   0.218700 0.927390 0.741130 -0.372648
O20   O     O_3   0.781300 0.072610 0.258870 -0.369345
V1    V     V_3+5 0.244190 0.152150 0.748350 1.486787
V2    V     V_3+5 0.755810 0.847850 0.251650 1.533662
V3    V     V_3+5 0.255810 0.652150 0.751650 1.486785
V4    V     V_3+5 0.744190 0.347850 0.248350 1.533661
C9    C     C_R   0.656331 0.059641 0.093759 -0.138610
C10   C     C_R   0.344318 0.941424 0.905874 -0.136909
C11   C     C_R   0.843669 0.559645 0.406241 -0.138610
C12   C     C_R   0.155682 0.441420 0.594126 -0.136912
C13   C     C_R   0.641948 0.077894 0.985204 -0.070472
C14   C     C_R   0.358691 0.930184 0.014527 -0.081114
C15   C     C_R   0.858053 0.577924 0.514795 -0.070472
C16   C     C_R   0.141308 0.430153 0.485473 -0.081115
C17   C     C_R   0.675161 0.084084 0.040407 0.333917
C18   C     C_R   0.325311 0.929187 0.959475 0.340851
C19   C     C_R   0.824840 0.584106 0.459592 0.333918
C20   C     C_R   0.174688 0.429165 0.540525 0.340847
C21   C     C_R   0.604554 0.029310 0.090216 -0.222862
C22   C     C_R   0.396470 0.960880 0.909108 -0.219845
C23   C     C_R   0.895446 0.529304 0.409785 -0.222861
C24   C     C_R   0.103530 0.460886 0.590892 -0.219844
C25   C     C_R   0.570067 0.023960 0.034017 0.043572
C26   C     C_R   0.430984 0.968098 0.965303 0.044859
C27   C     C_R   0.929933 0.523963 0.465983 0.043572
C28   C     C_R   0.069016 0.468096 0.534698 0.044860
C29   C     C_R   0.589997 0.048558 0.981064 -0.001253
C30   C     C_R   0.410919 0.949425 0.018401 0.003246
C31   C     C_R   0.910004 0.548580 0.518935 -0.001253
C32   C     C_R   0.089080 0.449403 0.481599 0.003247
C33   C     C_R   0.516729 0.996510 0.028673 0.030764
C34   C     C_R   0.484406 0.993329 0.970586 0.028179
C35   C     C_R   0.983271 0.496504 0.471328 0.030765
C36   C     C_R   0.015594 0.493335 0.529414 0.028179
C37   C     C_R   0.506402 0.017592 0.919598 -0.230482
C38   C     C_R   0.494702 0.973463 0.079692 -0.236916
C39   C     C_R   0.993598 0.517616 0.580402 -0.230481
C40   C     C_R   0.005297 0.473438 0.420309 -0.236916
C41   C     C_R   0.558217 0.044655 0.924246 0.375267
C42   C     C_R   0.442771 0.950956 0.075155 0.366645
C43   C     C_R   0.941784 0.544687 0.575754 0.375268
C44   C     C_R   0.057227 0.450923 0.424846 0.366644
H1    H     H_    0.408549 0.969028 0.866661 0.116754
H2    H     H_    0.592745 0.011718 0.132533 0.114975
H3    H     H_    0.091451 0.469048 0.633339 0.116755
H4    H     H_    0.907254 0.511699 0.367468 0.114975
H5    H     H_    0.657479 0.096909 0.945032 0.209594
H6    H     H_    0.342985 0.918050 0.054826 0.204346
H7    H     H_    0.842523 0.596954 0.554968 0.209594
H8    H     H_    0.157013 0.418003 0.445174 0.204346
H9    H     H_    0.484129 0.017940 0.874908 0.127681
H10   H     H_    0.516915 0.973358 0.124396 0.120761
H11   H     H_    0.015872 0.517974 0.625091 0.127681
H12   H     H_    0.983084 0.473324 0.375604 0.120760
C45   C     C_R   0.622337 0.877351 0.357650 0.314138
C46   C     C_R   0.358623 0.074843 0.609828 0.364154
C47   C     C_R   0.877663 0.377351 0.142350 0.314137
C48   C     C_R   0.141379 0.574839 0.890174 0.364153
C49   C     C_R   0.593441 0.858101 0.401976 -0.128255
C50   C     C_R   0.394746 0.069357 0.573519 -0.165777
C51   C     C_R   0.906558 0.358101 0.098024 -0.128254
C52   C     C_R   0.105255 0.569353 0.926483 -0.165797
H13   H     H_    0.585636 0.723247 0.416449 0.246269
H14   H     H_    0.393828 0.173712 0.539163 0.166371
H15   H     H_    0.914364 0.223246 0.083551 0.246269
H16   H     H_    0.106175 0.673705 0.960840 0.166372
C53   C     C_R   0.571905 0.009599 0.424772 -0.217732
C54   C     C_R   0.431698 0.932746 0.580440 -0.225041
C55   C     C_R   0.928095 0.509599 0.075228 -0.217732
C56   C     C_R   0.068302 0.432747 0.919560 -0.225035
C57   C     C_R   0.581924 0.185138 0.403655 0.362486
C58   C     C_R   0.432858 0.797078 0.625380 0.362334
C59   C     C_R   0.918075 0.685138 0.096345 0.362486
C60   C     C_R   0.067140 0.297082 0.874618 0.362339
C61   C     C_R   0.621966 0.207700 0.371586 0.277757
C62   C     C_R   0.397205 0.803955 0.663755 0.247510
C63   C     C_R   0.878034 0.707700 0.128414 0.277759
C64   C     C_R   0.102794 0.303960 0.836243 0.247508
C65   C     C_R   0.641838 0.052276 0.346252 -0.255653
C66   C     C_R   0.358175 0.939280 0.654642 -0.282642
C67   C     C_R   0.858162 0.552276 0.153748 -0.255653
C68   C     C_R   0.141825 0.439280 0.845358 -0.282639
N1    N     N_R   0.537017 0.101459 0.513609 -0.166032
N2    N     N_R   0.470739 0.821815 0.496882 -0.222364
N3    N     N_R   0.962983 0.601459 0.986391 -0.166032
N4    N     N_R   0.029261 0.321815 0.003118 -0.222359
N5    N     N_R   0.504005 0.083720 0.549859 -0.178192
N6    N     N_R   0.503717 0.839965 0.460462 -0.194599
N7    N     N_R   0.995996 0.583720 0.950141 -0.178198
N8    N     N_R   0.996283 0.339964 0.039538 -0.194599
C69   C     C_R   0.470191 0.943798 0.542177 0.609328
C70   C     C_R   0.537284 0.981258 0.467737 0.639345
C71   C     C_R   0.029809 0.443798 0.957823 0.609328
C72   C     C_R   0.962716 0.481258 0.032263 0.639346
O21   O     O_3   0.578649 0.068576 0.873324 -0.615324
H17   H     H_    0.551663 0.062046 0.836972 0.329772
O22   O     O_3   0.422246 0.930348 0.126149 -0.627426
H18   H     H_    0.449320 0.934352 0.162457 0.315508
O23   O     O_3   0.921352 0.568627 0.626676 -0.615324
H19   H     H_    0.948339 0.562103 0.663027 0.329774
O24   O     O_3   0.077752 0.430296 0.373852 -0.627426
H20   H     H_    0.050678 0.434295 0.337544 0.315508
O25   O     O_3   0.274645 0.915923 0.960680 -0.609249
H21   H     H_    0.254549 0.939416 0.920149 0.306582
O26   O     O_3   0.725441 0.113706 0.039492 -0.621467
H22   H     H_    0.745636 0.110668 0.080764 0.303709
O27   O     O_3   0.225354 0.415889 0.539320 -0.609248
H23   H     H_    0.245451 0.439395 0.579850 0.306587
O28   O     O_3   0.774560 0.613738 0.460508 -0.621467
H24   H     H_    0.754365 0.610687 0.419236 0.303708
O29   O     O_3   0.629645 0.722872 0.325485 -0.582321
H25   H     H_    0.623887 0.758804 0.282492 0.306669
O30   O     O_3   0.323058 0.211400 0.598952 -0.616384
H26   H     H_    0.330014 0.293585 0.634502 0.309828
O31   O     O_3   0.870354 0.222872 0.174514 -0.582321
H27   H     H_    0.876113 0.258805 0.217507 0.306669
O32   O     O_3   0.176945 0.711390 0.901052 -0.616382
H28   H     H_    0.169991 0.793579 0.865504 0.309823
S1    S     S_3+6 0.538663 0.366196 0.406759 0.030810
O33   O     O_2   0.554387 0.467661 0.465134 -0.310290
O34   O     O_2   0.537439 0.493881 0.354352 -0.314050
O35   O     O_3   0.480356 0.281405 0.403159 -0.485526
H29   H     H_    0.460549 0.385439 0.414666 0.388760
S2    S     S_3+6 0.480534 0.624485 0.634974 0.130789
O36   O     O_2   0.531123 0.716739 0.645734 -0.257481
O37   O     O_2   0.478122 0.497959 0.686783 -0.263039
O38   O     O_3   0.474539 0.498089 0.571894 -0.436495
H30   H     H_    0.438173 0.469966 0.560756 0.320323
S3    S     S_3+6 0.961337 0.866196 0.093241 0.030809
O39   O     O_2   0.945613 0.967660 0.034867 -0.310291
O40   O     O_2   0.962561 0.993882 0.145648 -0.314050
O41   O     O_3   0.019644 0.781406 0.096842 -0.485527
H31   H     H_    0.039451 0.885440 0.085335 0.388760
S4    S     S_3+6 0.019464 0.124494 0.865022 0.130789
O42   O     O_2   0.968876 0.216753 0.854263 -0.257481
O43   O     O_2   0.021874 0.997974 0.813211 -0.263039
O44   O     O_3   0.025457 0.998091 0.928100 -0.436495
H32   H     H_    0.061823 0.969951 0.939234 0.320328
O45   O     O_3   0.642278 0.378312 0.365432 -0.579430
H33   H     H_    0.636260 0.456208 0.399204 0.346394
O46   O     O_3   0.402163 0.680343 0.710721 -0.589150
H34   H     H_    0.391922 0.742224 0.745401 0.289288
O47   O     O_3   0.857722 0.878311 0.134568 -0.579430
H35   H     H_    0.863740 0.956207 0.100795 0.346394
O48   O     O_3   0.097835 0.180352 0.789276 -0.589150
H36   H     H_    0.108077 0.242233 0.754597 0.289288

loop_
_geom_bond_atom_site_label_1
_geom_bond_atom_site_label_2
_ccdc_geom_bond_type
O17   V3    S    
C59   C63   A    
O48   H36   S    
C52   C56   A    
O1    C5    A    
O45   H33   S    
C51   H15   S    
S3    O40   D    
C9    C21   A    
O47   H35   S    
C56   C71   S    
O3    C7    A    
O44   H32   S    
C10   C18   A    
C60   C64   A    
C11   C23   A    
S1    O33   D    
C25   C33   A    
O28   H24   S    
C5    C12   S    
C39   H11   S    
C1    C68   S    
O7    C3    A    
C6    C11   S    
C35   C40   A    
C26   C30   A    
C36   C39   A    
C40   C44   A    
O9    V1    S    
C14   C18   A    
C43   O23   S    
C58   S2    S    
C4    C65   S    
O4    C8    A    
C54   C69   S    
C55   C59   A    
N4    N8    A    
O19   V1    S    
C54   C58   A    
O32   H28   S    
O1    V3    S    
O13   V1    S    
O2    V4    S    
O3    V1    S    
C22   H1    S    
C50   C54   A    
C49   C53   A    
C1    O15   A    
C15   C31   A    
C52   H16   S    
C37   H9    S    
C16   C32   A    
S2    O38   S    
C59   S3    S    
O2    C6    A    
C12   C24   A    
C10   C22   A    
C41   O21   S    
C11   C19   A    
N2    N6    A    
C16   C20   A    
N1    N5    A    
O22   H18   S    
C13   C29   A    
C34   C37   A    
O11   C7    A    
O15   V3    S    
C35   C36   A    
O12   C8    A    
C62   O46   S    
S3    O41   S    
C40   H12   S    
C2    C67   S    
O10   V2    S    
N2    C69   A    
S1    O34   D    
O16   V4    S    
N1    C70   A    
O5    V1    S    
C61   C65   A    
C39   C43   A    
O7    V3    S    
C38   C42   A    
C26   C34   A    
S4    O44   S    
C33   C38   A    
O35   H29   S    
C50   H14   S    
C2    O16   A    
O46   H34   S    
C47   O31   S    
C49   H13   S    
O18   V4    S    
C15   C19   A    
C48   O32   S    
C32   C44   A    
O4    V2    S    
N8    C72   A    
C51   C55   A    
N3    C72   A    
S4    O43   D    
O41   H31   S    
C45   O29   S    
O5    C1    A    
C46   O30   S    
C37   C41   A    
N3    N7    A    
C60   S4    S    
C31   C43   A    
C14   C30   A    
C21   C25   A    
O8    C4    A    
C7    C10   S    
C3    C66   S    
O9    C5    A    
C19   O28   S    
C44   O24   S    
O21   H17   S    
N6    C70   A    
C64   O48   S    
N5    C69   A    
O6    V2    S    
C15   H7    S    
O23   H19   S    
S2    O37   D    
C12   C20   A    
C27   C35   A    
C53   C70   S    
C24   H3    S    
O26   H22   S    
C53   C57   A    
C64   C68   A    
S1    O35   S    
C29   C41   A    
C17   O26   S    
O25   H21   S    
C14   H6    S    
C20   O27   S    
C45   C65   A    
C13   H5    S    
C3    O13   A    
C21   H2    S    
S2    O36   D    
C57   S1    S    
C38   H10   S    
C48   C52   A    
C47   C51   A    
O6    C2    A    
N4    C71   A    
C23   C27   A    
O30   H26   S    
O11   V3    S    
O24   H20   S    
C30   C42   A    
C55   C72   S    
O12   V4    S    
O29   H25   S    
C22   C26   A    
N7    C71   A    
C8    C9    S    
C9    C17   A    
S4    O42   D    
O10   C6    A    
O20   V2    S    
C58   C62   A    
O31   H27   S    
C61   O45   S    
C46   C50   A    
C33   C34   A    
O27   H23   S    
O8    V4    S    
C25   C29   A    
C56   C60   A    
C48   C68   A    
C47   C67   A    
C62   C66   A    
C18   O25   S    
C27   C31   A    
C46   C66   A    
C13   C17   A    
C45   C49   A    
C23   H4    S    
O14   V2    S    
C16   H8    S    
C24   C28   A    
C28   C36   A    
C4    O14   A    
S3    O39   D    
C63   O47   S    
C42   O22   S    
C63   C67   A    
O38   H30   S    
C57   C61   A    
C28   C32   A    
