data_mof_unit_pretest_744.cif
_audit_creation_date              2013-03-05T15:53:15-0500
_audit_creation_method            fapswitch 2.2
_symmetry_space_group_name_H-M    P1
_symmetry_Int_Tables_number       1
_space_group_crystal_system       triclinic
_cell_length_a                    17.59377
_cell_length_b                    24.52334
_cell_length_c                    15.149179
_cell_angle_alpha                 90.310935
_cell_angle_beta                  125.966953
_cell_angle_gamma                 90.115977
_cell_volume                      5289.95229245

loop_
_atom_site_label
_atom_site_type_symbol
_atom_site_description
_atom_site_fract_x
_atom_site_fract_y
_atom_site_fract_z
_atom_type_partial_charge
C1    C     C_R   0.344967 0.349977 0.911334 0.404483
C2    C     C_R   0.638980 0.345911 0.089035 0.295237
C3    C     C_R   0.862627 0.846978 0.904973 0.354389
C4    C     C_R   0.139387 0.846781 0.091673 0.274136
N1    N     N_R   0.395410 0.396350 0.944340 -0.140687
N2    N     N_R   0.604590 0.396350 0.055660 -0.117127
N3    N     N_R   0.895410 0.896350 0.944340 -0.113398
N4    N     N_R   0.104590 0.896350 0.055660 -0.124172
C5    C     C_R   0.407119 0.630314 0.089808 -0.096393
C6    C     C_R   0.590154 0.632329 0.909689 -0.093766
C7    C     C_R   0.930695 0.147540 0.088649 -0.047003
C8    C     C_R   0.098656 0.122541 0.910265 0.003886
H1    H     H_    0.432879 0.633655 0.172537 0.188737
H2    H     H_    0.558025 0.642297 0.826608 0.153906
H3    H     H_    0.969320 0.162220 0.171150 0.160959
H4    H     H_    0.072803 0.130215 0.827222 0.168517
N5    N     N_R   0.449930 0.602500 0.055880 -0.050106
N6    N     N_R   0.550070 0.602500 0.944120 -0.054344
N7    N     N_R   0.949930 0.102500 0.055880 -0.058643
N8    N     N_R   0.050070 0.102500 0.944120 -0.050565
C9    C     C_R   0.552548 0.454251 0.302857 -0.097318
C10   C     C_R   0.496986 0.453925 0.729063 -0.196094
C11   C     C_R   0.993775 0.954278 0.261559 -0.128541
C12   C     C_R   0.950761 0.953735 0.698416 -0.114864
H5    H     H_    0.576797 0.413560 0.332896 0.216840
H6    H     H_    0.509645 0.413016 0.717371 0.189468
H7    H     H_    0.984015 0.913561 0.274994 0.179801
H8    H     H_    0.932197 0.912439 0.669982 0.160734
N9    N     N_R   0.525080 0.471030 0.205650 -0.071112
N10   N     N_R   0.474920 0.471030 0.794350 -0.063647
N11   N     N_R   0.025080 0.971030 0.205650 -0.056415
N12   N     N_R   0.974920 0.971030 0.794350 -0.059512
C13   C     C_R   0.232109 0.545144 0.725539 0.263544
C14   C     C_R   0.765862 0.545011 0.288562 0.318427
C15   C     C_R   0.731142 0.045387 0.737137 0.289403
C16   C     C_R   0.261131 0.046394 0.293568 0.278198
N13   N     N_R   0.320260 0.527820 0.794570 -0.110652
N14   N     N_R   0.679740 0.527820 0.205430 -0.116136
N15   N     N_R   0.820260 0.027820 0.794570 -0.120605
N16   N     N_R   0.179740 0.027820 0.205430 -0.121437
C17   C     C_R   0.551181 0.544929 0.303810 0.374775
C18   C     C_R   0.482993 0.544606 0.716447 0.320538
C19   C     C_R   0.003288 0.045148 0.272305 0.369066
C20   C     C_R   0.948317 0.044409 0.696164 0.316515
N17   N     N_R   0.524590 0.527840 0.205200 -0.090974
N18   N     N_R   0.475410 0.527840 0.794800 -0.064970
N19   N     N_R   0.024590 0.027840 0.205200 -0.072644
N20   N     N_R   0.975410 0.027840 0.794800 -0.087193
C21   C     C_R   0.232997 0.458043 0.764245 0.638920
C22   C     C_R   0.767585 0.454342 0.277241 0.589591
C23   C     C_R   0.734178 0.956944 0.766711 0.681377
C24   C     C_R   0.267655 0.956150 0.284055 0.632839
N21   N     N_R   0.320750 0.471000 0.795020 -0.141397
N22   N     N_R   0.679250 0.471000 0.204980 -0.114289
N23   N     N_R   0.820750 0.971000 0.795020 -0.128999
N24   N     N_R   0.179250 0.971000 0.204980 -0.117919
C25   C     C_R   0.318920 0.633034 0.908607 -0.110211
C26   C     C_R   0.684069 0.631551 0.091374 -0.077081
C27   C     C_R   0.841964 0.147261 0.908355 0.042799
C28   C     C_R   0.188304 0.125443 0.092446 -0.173848
H9    H     H_    0.266222 0.641500 0.825543 0.214318
H10   H     H_    0.739959 0.641258 0.173833 0.171094
H11   H     H_    0.808766 0.163681 0.828450 0.207586
H12   H     H_    0.243255 0.136978 0.174976 0.155469
N25   N     N_R   0.393620 0.602490 0.942710 -0.060991
N26   N     N_R   0.606380 0.602490 0.057290 -0.050990
N27   N     N_R   0.893620 0.102490 0.942710 -0.072744
N28   N     N_R   0.106380 0.102490 0.057290 -0.040670
C29   C     C_R   0.431132 0.353291 0.093448 0.587899
C30   C     C_R   0.556864 0.346981 0.909742 0.521623
C31   C     C_R   0.940052 0.845155 0.084929 0.594949
C32   C     C_R   0.058352 0.846607 0.911159 0.577718
N29   N     N_R   0.451720 0.396350 0.057510 -0.122165
N30   N     N_R   0.548280 0.396350 0.942490 -0.129525
N31   N     N_R   0.951720 0.896350 0.057510 -0.120788
N32   N     N_R   0.048280 0.896350 0.942490 -0.117792
C33   C     C_R   0.362905 0.324107 0.001431 -0.136451
C34   C     C_R   0.614596 0.314540 0.999804 -0.176734
C35   C     C_R   0.890162 0.812454 0.989223 -0.163928
C36   C     C_R   0.115718 0.813924 0.004875 -0.202084
C37   C     C_R   0.324041 0.650423 0.999337 0.108405
C38   C     C_R   0.676709 0.649205 0.999856 0.134789
C39   C     C_R   0.856819 0.173800 0.997495 0.111325
C40   C     C_R   0.184600 0.137614 0.001551 0.147260
C41   C     C_R   0.567110 0.498878 0.365775 -0.036481
C42   C     C_R   0.503668 0.498848 0.680653 0.010214
C43   C     C_R   0.977815 0.999269 0.302206 -0.038635
C44   C     C_R   0.934337 0.998112 0.634946 -0.045882
C45   C     C_R   0.174824 0.502187 0.708456 -0.102402
C46   C     C_R   0.822357 0.499880 0.332185 -0.121684
C47   C     C_R   0.675632 0.001463 0.721103 -0.130828
C48   C     C_R   0.318256 0.002398 0.342659 -0.151633
Ni1   Ni    Ni4+2 0.435420 0.434270 0.870230 0.202496
Ni2   Ni    Ni4+2 0.564580 0.434270 0.129770 0.280862
Ni3   Ni    Ni4+2 0.935420 0.934270 0.870230 0.235093
Ni4   Ni    Ni4+2 0.064580 0.934270 0.129770 0.259765
Ni5   Ni    Ni4+2 0.563430 0.564580 0.128740 0.274471
Ni6   Ni    Ni4+2 0.436570 0.564580 0.871260 0.270129
Ni7   Ni    Ni4+2 0.063430 0.064580 0.128740 0.280485
Ni8   Ni    Ni4+2 0.936570 0.064580 0.871260 0.278535
C49   C     C_2   0.918122 0.479132 0.525674 0.368744
C50   C     C_2   0.012144 0.466859 0.620166 0.325172
C51   C     C_2   0.418582 0.975149 0.532658 0.382864
C52   C     C_2   0.514824 0.961607 0.619361 0.301019
C53   C     C_2   0.910688 0.498773 0.438406 -0.249679
C54   C     C_2   0.075047 0.507999 0.660745 -0.285863
C55   C     C_2   0.406049 0.003211 0.449484 -0.214478
C56   C     C_2   0.575180 0.003610 0.672109 -0.264218
H13   H     H_    0.972616 0.510039 0.442705 0.154775
H14   H     H_    0.048275 0.549431 0.639073 0.197368
H15   H     H_    0.465130 0.022001 0.455735 0.146937
H16   H     H_    0.546450 0.044074 0.663802 0.202763
C57   C     C_R   0.263866 0.689382 0.099675 -0.047342
C58   C     C_R   0.706926 0.707428 0.894669 -0.154308
C59   C     C_R   0.800746 0.217090 0.095590 -0.143757
C60   C     C_R   0.187105 0.232923 0.974962 0.018486
C61   C     C_R   0.253338 0.680881 0.001079 -0.175370
C62   C     C_R   0.742076 0.683009 0.994317 -0.056051
C63   C     C_R   0.789610 0.209059 0.996963 -0.055978
C64   C     C_R   0.231606 0.182837 0.997717 -0.271384
C65   C     C_R   0.169985 0.701215 0.905253 0.521591
C66   C     C_R   0.839823 0.684388 0.075392 0.519118
C67   C     C_R   0.701190 0.221291 0.899280 0.432094
C68   C     C_R   0.311679 0.177015 0.999758 0.540746
C69   C     C_R   0.628353 0.237119 0.905397 0.316893
C70   C     C_R   0.352732 0.224119 0.993154 0.247661
C71   C     C_R   0.104078 0.726160 0.914895 0.204988
C72   C     C_R   0.895338 0.718264 0.058487 0.199520
C73   C     C_R   0.649126 0.259444 0.003033 0.122536
C74   C     C_R   0.316648 0.275232 0.993546 -0.215490
C75   C     C_R   0.138253 0.754935 0.011429 -0.064575
C76   C     C_R   0.851249 0.756979 0.973933 0.070490
C77   C     C_R   0.735018 0.245660 0.100397 -0.097968
C78   C     C_R   0.228860 0.278894 0.972514 0.175600
C79   C     C_R   0.210194 0.727750 0.107057 0.179654
C80   C     C_R   0.757551 0.747563 0.885061 0.029763
C81   C     C_3   0.748089 0.207170 0.185572 0.512592
C82   C     C_3   0.192888 0.313262 0.022498 0.354868
C83   C     C_3   0.291522 0.741649 0.222785 0.438112
C84   C     C_3   0.724256 0.723577 0.775181 0.464932
C85   C     C_3   0.347374 0.697589 0.214272 0.034660
C86   C     C_3   0.681809 0.676816 0.795188 0.026985
C87   C     C_3   0.813312 0.174133 0.173065 0.045492
C88   C     C_3   0.146089 0.261159 0.025320 0.080348
H17   H     H_    0.784747 0.228030 0.266641 0.042637
H18   H     H_    0.250964 0.329807 0.104014 -0.023184
H19   H     H_    0.318267 0.783695 0.229734 -0.032771
H20   H     H_    0.669926 0.750336 0.707827 0.068603
H21   H     H_    0.409811 0.714581 0.222311 0.071451
H22   H     H_    0.605346 0.673245 0.730164 0.088125
H23   H     H_    0.885453 0.173314 0.249517 0.110532
H24   H     H_    0.176492 0.246902 0.109405 0.072407
C89   C     C_R   0.542131 0.447026 0.573459 0.135997
C90   C     C_R   0.564911 0.445717 0.501131 0.168652
C91   C     C_R   0.944598 0.946320 0.504697 0.115508
C92   C     C_R   0.960023 0.947751 0.426209 0.124237
C93   C     C_R   0.539819 0.496655 0.616878 0.059867
C94   C     C_R   0.589419 0.494052 0.474038 0.090163
C95   C     C_R   0.911806 0.992614 0.526718 0.071265
C96   C     C_R   0.944346 0.995543 0.368747 0.091706
C97   C     C_R   0.582536 0.542201 0.607838 -0.101308
C98   C     C_R   0.612591 0.539832 0.541336 -0.079542
C99   C     C_R   0.874287 0.035332 0.451085 -0.161234
C100  C     C_R   0.892806 0.037454 0.373432 -0.124111
H25   H     H_    0.587408 0.580398 0.646170 0.176889
H26   H     H_    0.645083 0.575534 0.536621 0.188616
H27   H     H_    0.837721 0.068891 0.456005 0.181618
H28   H     H_    0.873036 0.073232 0.323503 0.178044
C101  C     C_3   0.490421 0.403459 0.431733 -0.464706
C102  C     C_3   0.466906 0.404748 0.512813 -0.510482
C103  C     C_3   0.047227 0.914351 0.491640 -0.454490
C104  C     C_3   0.030828 0.912726 0.578836 -0.451202
H29   H     H_    0.432086 0.418679 0.350116 0.213191
H30   H     H_    0.484898 0.366195 0.559263 0.206287
H31   H     H_    0.039167 0.873721 0.454285 0.186321
H32   H     H_    0.086119 0.934747 0.654741 0.223363
H33   H     H_    0.520853 0.363947 0.431040 0.214250
H34   H     H_    0.395621 0.420818 0.478534 0.220513
H35   H     H_    0.111560 0.937438 0.516557 0.246191
H36   H     H_    0.013557 0.871156 0.591391 0.203777
Br1   Br    Br    0.257490 0.323754 0.764156 -0.441148
Br2   Br    Br    0.656883 0.315058 0.215945 -0.493270
Br3   Br    Br    0.798587 0.833270 0.752335 -0.585557
Br4   Br    Br    0.155244 0.822588 0.220078 -0.525093
O1    O     O_3   0.146029 0.691969 0.801963 -0.594199
C105  C     C_3   0.177946 0.736936 0.773720 -0.233846
H37   H     H_    0.255965 0.739509 0.826459 0.137203
H38   H     H_    0.149485 0.776228 0.778859 0.165566
H39   H     H_    0.154091 0.731480 0.688246 0.212875
O2    O     O_3   0.880227 0.645395 0.156461 -0.583041
C106  C     C_3   0.925406 0.671040 0.259423 -0.134993
H40   H     H_    0.882538 0.704298 0.259915 0.100712
H41   H     H_    0.995740 0.686500 0.288312 0.180918
H42   H     H_    0.936781 0.640091 0.319107 0.211888
O3    O     O_3   0.679710 0.208354 0.798243 -0.581131
C107  C     C_3   0.680505 0.256936 0.749426 -0.100234
H43   H     H_    0.750486 0.277429 0.800147 0.132918
H44   H     H_    0.624500 0.285283 0.733576 0.156127
H45   H     H_    0.666314 0.246593 0.669616 0.201139
O4    O     O_3   0.348913 0.126240 0.006974 -0.557592
C108  C     C_3   0.411313 0.112475 0.118154 -0.130582
H46   H     H_    0.372445 0.102195 0.152954 0.108497
H47   H     H_    0.463264 0.145589 0.167422 0.108376
H48   H     H_    0.451066 0.075747 0.124954 0.174003
Br5   Br    Br    0.505768 0.209009 0.793844 -0.321175
Br6   Br    Br    0.459411 0.217920 0.990710 -0.409968
Br7   Br    Br    0.000400 0.678300 0.865514 -0.382723
Br8   Br    Br    0.023051 0.698479 0.121368 -0.359439
O5    O     O_3   0.664353 0.179359 0.151079 -0.520305
C109  C     C_3   0.674534 0.155752 0.242142 0.022798
H49   H     H_    0.669742 0.187564 0.291199 0.136831
H50   H     H_    0.741520 0.132969 0.294169 0.088286
H51   H     H_    0.616652 0.126054 0.212666 0.145723
O6    O     O_3   0.128603 0.352266 0.947216 -0.518820
C110  C     C_3   0.107132 0.389255 0.001192 -0.007185
H52   H     H_    0.170321 0.412980 0.064924 0.071013
H53   H     H_    0.076215 0.368039 0.038054 0.134712
H54   H     H_    0.054441 0.418611 0.940607 0.177088
O7    O     O_3   0.272849 0.727813 0.298988 -0.509396
C111  C     C_3   0.346452 0.747409 0.403655 0.126485
H55   H     H_    0.344850 0.792560 0.407907 0.157007
H56   H     H_    0.416652 0.734155 0.427665 0.092372
H57   H     H_    0.336570 0.730717 0.464203 0.178026
O8    O     O_3   0.797591 0.708257 0.767601 -0.542051
C112  C     C_3   0.759198 0.696070 0.657420 0.063960
H58   H     H_    0.732852 0.733554 0.607091 0.125260
H59   H     H_    0.701853 0.665178 0.622443 0.111313
H60   H     H_    0.814836 0.678872 0.652539 0.196593
Br9   Br    Br    0.368217 0.631637 0.298580 -0.429812
Br10  Br    Br    0.753784 0.608674 0.834582 -0.453792
Br11  Br    Br    0.761479 0.102802 0.101836 -0.527579
Br12  Br    Br    0.009404 0.258233 0.927468 -0.469613
Br13  Br    Br    0.194619 0.605865 0.628869 -0.496785
Br14  Br    Br    0.795354 0.612198 0.368412 -0.525487
Br15  Br    Br    0.683902 0.109415 0.649015 -0.483938
Br16  Br    Br    0.275398 0.113730 0.367009 -0.450311
Br17  Br    Br    0.597389 0.617667 0.356101 -0.564934
Br18  Br    Br    0.420785 0.607755 0.628463 -0.521266
Br19  Br    Br    0.053430 0.109920 0.359901 -0.495279
Br20  Br    Br    0.898763 0.116018 0.643228 -0.517797
O9    O     O_3   0.218160 0.427725 0.829607 -0.566541
C113  C     C_3   0.236066 0.460000 0.917963 -0.115336
H61   H     H_    0.173155 0.484351 0.892424 0.165506
H62   H     H_    0.298457 0.487312 0.953481 0.078617
H63   H     H_    0.251483 0.432503 0.984249 0.159648
O10   O     O_3   0.792657 0.401375 0.311638 -0.554212
C114  C     C_3   0.863173 0.385435 0.299617 -0.079030
H64   H     H_    0.931004 0.406277 0.360057 0.137647
H65   H     H_    0.841551 0.392491 0.215181 0.080190
H66   H     H_    0.874944 0.341011 0.314972 0.186034
O11   O     O_3   0.717315 0.915107 0.814141 -0.582132
C115  C     C_3   0.714256 0.935592 0.899575 -0.115344
H67   H     H_    0.645222 0.954460 0.866732 0.172280
H68   H     H_    0.772175 0.965199 0.953112 0.108099
H69   H     H_    0.722663 0.900940 0.951356 0.175133
O12   O     O_3   0.298805 0.903452 0.313317 -0.560048
C116  C     C_3   0.370373 0.894592 0.299179 -0.175600
H70   H     H_    0.425905 0.926685 0.337661 0.132285
H71   H     H_    0.339668 0.890895 0.210959 0.109836
H72   H     H_    0.406337 0.855950 0.339405 0.178191
O13   O     O_3   0.473989 0.344451 0.203881 -0.631103
C117  C     C_3   0.466947 0.290389 0.229182 -0.162400
H73   H     H_    0.491547 0.260756 0.195600 0.179945
H74   H     H_    0.395010 0.280991 0.203689 0.098057
H75   H     H_    0.514234 0.285954 0.319045 0.176411
O14   O     O_3   0.524817 0.333518 0.804651 -0.669502
C118  C     C_3   0.426137 0.333490 0.736179 -0.127063
H76   H     H_    0.395739 0.371919 0.741222 0.129875
H77   H     H_    0.399109 0.298134 0.754834 0.235801
H78   H     H_    0.402219 0.328614 0.650574 0.171525
O15   O     O_3   0.917501 0.839243 0.157925 -0.650598
C119  C     C_3   0.989293 0.812350 0.253324 -0.254058
H79   H     H_    0.053578 0.837725 0.303606 0.193929
H80   H     H_    0.008476 0.773334 0.236631 0.196024
H81   H     H_    0.963614 0.803642 0.303409 0.154697
O16   O     O_3   0.047168 0.839027 0.813364 -0.655744
C120  C     C_3   0.971142 0.803571 0.742581 -0.223455
H82   H     H_    0.911768 0.826332 0.673758 0.173549
H83   H     H_    0.945266 0.780222 0.782338 0.216077
H84   H     H_    0.992439 0.773859 0.705735 0.185923
Br21  Br    Br    0.812635 0.457697 0.525119 -0.437992
Br22  Br    Br    0.038021 0.390163 0.640108 -0.314972
Br23  Br    Br    0.318086 0.942110 0.530490 -0.440540
Br24  Br    Br    0.546031 0.888121 0.606485 -0.483544

loop_
_geom_bond_atom_site_label_1
_geom_bond_atom_site_label_2
_geom_bond_distance
_ccdc_geom_bond_type
C26   H10   1.066313 S    
C103  C104  1.509282 S    
C77   C81   1.508088 S    
C49   C50   1.449593 S    
N6    Ni6   1.860905 S    
C30   C34   1.383220 A    
N1    N29   1.387682 A    
C1    C33   1.367218 A    
C108  H46   1.110542 S    
C50   Br22  1.919424 S    
C29   C33   1.384358 A    
C99   C100  1.394127 A    
N4    Ni4   1.881589 S    
N5    Ni5   1.870904 S    
C29   O13   1.391838 S    
C4    N4    1.329671 A    
C3    C35   1.366596 A    
O8    C112  1.414585 S    
C84   H20   1.117846 S    
N16   Ni7   1.891066 S    
C111  H56   1.112930 S    
C97   C98   1.386780 A    
C18   Br18  1.920518 S    
C85   H21   1.111597 S    
O11   C115  1.416072 S    
C17   Br17  1.921635 S    
C79   C83   1.510658 S    
C104  H32   1.112374 S    
C7    N7    1.331869 A    
O2    C106  1.411108 S    
C102  H34   1.112264 S    
C1    N1    1.341412 A    
C96   C100  1.400798 A    
N26   Ni5   1.890966 S    
C68   C70   1.395992 A    
C34   C73   1.471792 S    
C82   H18   1.115517 S    
N25   Ni6   1.886691 S    
C90   C94   1.403754 A    
N10   Ni1   1.887885 S    
C3    N3    1.318925 A    
N14   Ni5   1.891066 S    
N32   Ni3   1.863095 S    
C2    Br2   1.916618 S    
N9    Ni2   1.883264 S    
C118  H78   1.109187 S    
C21   N21   1.361210 A    
C76   C80   1.404123 A    
C86   Br10  1.970752 S    
C60   C78   1.356883 A    
C104  H36   1.111971 S    
C70   C74   1.407767 A    
C85   Br9   1.963740 S    
N11   Ni4   1.883264 S    
C54   H14   1.089002 S    
C37   C61   1.465632 S    
N4    N32   1.387681 A    
C112  H60   1.108119 S    
N19   Ni7   1.886531 S    
C43   C96   1.438497 S    
C8    C40   1.367988 A    
N24   Ni4   1.860413 S    
O9    C113  1.417575 S    
C101  C102  1.509106 S    
C44   C95   1.448253 S    
C39   C63   1.462506 S    
C12   N12   1.318966 A    
C5    H1    1.055621 S    
C111  H55   1.110140 S    
C71   Br7   1.908783 S    
C51   C52   1.448160 S    
C27   N27   1.325491 A    
C60   C88   1.491686 S    
C24   N24   1.343599 A    
C7    H3    1.072339 S    
C91   C104  1.501800 S    
C26   N26   1.343812 A    
N15   N23   1.393489 A    
O1    C105  1.413956 S    
C8    H4    1.075054 S    
O4    C108  1.411277 S    
N16   N24   1.393380 A    
N14   N22   1.393380 A    
C45   C54   1.461545 S    
C30   N30   1.347944 A    
C113  H62   1.114626 S    
N21   Ni1   1.870328 S    
C29   N29   1.333786 A    
C18   C42   1.382852 A    
C11   H7    1.053803 S    
C11   C43   1.368331 A    
C23   O11   1.383538 S    
C23   N23   1.360742 A    
C49   Br21  1.923155 S    
C80   C84   1.517432 S    
N13   N21   1.393489 A    
N1    Ni1   1.886196 S    
C16   C48   1.364703 A    
C52   C56   1.347975 D    
C87   H23   1.107426 S    
O15   C119  1.410134 S    
N18   Ni6   1.881841 S    
C89   C90   1.370294 A    
C36   C75   1.489086 S    
N11   N19   1.393242 A    
C120  H82   1.104146 S    
C82   C88   1.532996 S    
C89   C93   1.392282 A    
N12   N20   1.393133 A    
N30   Ni1   1.863095 S    
C103  H35   1.112371 S    
C2    N2    1.342452 A    
C108  H47   1.114013 S    
C117  H75   1.108533 S    
C107  H45   1.109191 S    
C72   C76   1.411706 A    
C67   O3    1.378783 S    
N13   Ni6   1.881079 S    
C14   N14   1.345291 A    
C32   C36   1.417444 A    
C22   C46   1.382739 A    
N31   Ni4   1.853126 S    
N2    N30   1.387681 A    
C9    C41   1.368406 A    
C114  H65   1.114428 S    
C49   C53   1.341986 D    
N20   Ni8   1.881841 S    
C66   O2    1.384936 S    
C59   C87   1.498579 S    
C113  H63   1.106695 S    
C42   C93   1.436047 S    
C91   C95   1.399150 A    
C106  H40   1.114944 S    
C16   N16   1.336298 A    
C6    N6    1.318578 A    
N23   Ni3   1.870328 S    
C6    H2    1.063755 S    
C110  H54   1.109263 S    
C25   N25   1.328865 A    
O7    C111  1.413994 S    
C98   H26   1.070072 S    
O6    C110  1.410783 S    
C119  H79   1.107559 S    
N3    N31   1.387682 A    
O3    C107  1.410034 S    
C59   C77   1.391073 A    
N2    Ni2   1.881589 S    
C103  H31   1.110038 S    
C6    C38   1.379868 A    
N28   Ni7   1.890966 S    
C13   N13   1.334841 A    
C31   C35   1.416098 A    
C60   C64   1.389941 A    
C90   C101  1.503676 S    
C81   O5    1.412951 S    
C116  H71   1.112027 S    
C30   O14   1.378641 S    
C89   C102  1.492138 S    
C15   N15   1.343640 A    
C110  H52   1.112244 S    
C106  H41   1.107560 S    
N8    N28   1.387684 A    
C27   C39   1.375010 A    
C13   C45   1.370708 A    
C81   H17   1.116867 S    
C48   C55   1.438221 S    
C21   O9    1.382822 S    
C14   C46   1.374931 A    
N8    Ni8   1.860905 S    
C92   C96   1.392068 A    
C99   H27   1.074482 S    
C40   C64   1.403797 S    
C83   H19   1.111008 S    
O12   C116  1.412777 S    
C8    N8    1.323363 A    
N7    Ni7   1.870904 S    
O5    C109  1.410377 S    
C32   N32   1.355781 A    
C51   Br23  1.925975 S    
C31   O15   1.384977 S    
C22   N22   1.337760 A    
C4    Br4   1.894594 S    
N7    N27   1.387680 A    
C12   C44   1.370641 A    
C58   C62   1.390900 A    
C10   H6    1.064325 S    
C19   Br19  1.912743 S    
N27   Ni8   1.886691 S    
C115  H69   1.109413 S    
C57   C61   1.407214 A    
N29   Ni2   1.853126 S    
C100  H28   1.078097 S    
C107  H44   1.112861 S    
C73   C77   1.400981 A    
C59   C63   1.400841 A    
C17   C41   1.392421 A    
C120  H83   1.105733 S    
C69   C73   1.405876 A    
C18   N18   1.336737 A    
C20   Br20  1.920241 S    
C108  H48   1.109037 S    
C95   C99   1.404771 A    
C27   H11   1.069734 S    
C24   C48   1.386954 A    
C15   Br15  1.913926 S    
C41   C94   1.450569 S    
C38   C62   1.458467 S    
C105  H38   1.110044 S    
C14   Br14  1.919615 S    
C93   C97   1.396538 A    
C116  H70   1.112063 S    
C13   Br13  1.920966 S    
C2    C34   1.381808 A    
C115  H68   1.114976 S    
C102  H30   1.111778 S    
C114  H66   1.109466 S    
C56   H16   1.088445 S    
C58   C86   1.494719 S    
C9    H5    1.078652 S    
O10   C114  1.411291 S    
C82   O6    1.412731 S    
C1    Br1   1.924349 S    
C10   N10   1.323645 A    
C112  H58   1.111475 S    
C32   O16   1.386567 S    
C55   H15   1.087991 S    
C47   C56   1.461886 S    
C88   Br12  1.948447 S    
C4    C36   1.376814 A    
C84   O8    1.412298 S    
C12   H8    1.070727 S    
C46   C53   1.438211 S    
C21   C45   1.389983 A    
C107  H43   1.113978 S    
C9    N9    1.320169 A    
C78   C82   1.497469 S    
C117  H74   1.108059 S    
C118  H76   1.108717 S    
C65   C71   1.393193 A    
C25   H9    1.057992 S    
C117  H73   1.109123 S    
C84   C86   1.493571 S    
C63   C67   1.415094 A    
C74   C78   1.384894 A    
C16   Br16  1.917814 S    
C109  H51   1.107339 S    
N3    Ni3   1.886196 S    
C68   O4    1.382824 S    
C92   C103  1.494943 S    
N5    N25   1.387680 A    
N10   N18   1.393133 A    
C3    Br3   1.912876 S    
C28   H12   1.073813 S    
C116  H72   1.107028 S    
C7    C39   1.384097 A    
C109  H50   1.112961 S    
C105  H39   1.109170 S    
C26   C38   1.386445 A    
C24   O12   1.375016 S    
C106  H42   1.108658 S    
C19   C43   1.383431 A    
C88   H24   1.111839 S    
N17   Ni5   1.886531 S    
C52   Br24  1.926970 S    
C31   N31   1.376826 A    
C22   O10   1.375841 S    
C28   C40   1.374254 A    
C101  H29   1.112374 S    
C86   H22   1.108943 S    
N15   Ni8   1.881079 S    
O13   C117  1.407341 S    
C53   H13   1.087616 S    
C70   Br6   1.905229 S    
C119  H81   1.108816 S    
C62   C66   1.409041 A    
C35   C76   1.476379 S    
C113  H61   1.110665 S    
C69   Br5   1.919036 S    
C112  H59   1.112289 S    
C57   C85   1.487254 S    
C50   C54   1.345413 D    
C101  H33   1.110965 S    
C5    N5    1.322792 A    
C33   C74   1.411918 S    
C10   C42   1.369246 A    
C81   C87   1.505507 S    
C64   C68   1.398481 A    
N6    N26   1.387684 A    
C25   C37   1.388226 A    
C71   C75   1.397253 A    
N22   Ni2   1.860413 S    
C110  H53   1.112312 S    
C67   C69   1.393759 A    
O14   C118  1.405279 S    
C94   C98   1.401255 A    
C65   O1    1.377888 S    
C66   C72   1.415110 A    
C75   C79   1.416055 A    
C83   O7    1.415996 S    
C58   C80   1.390522 A    
N12   Ni3   1.887885 S    
O16   C120  1.412584 S    
C28   N28   1.330313 A    
C119  H80   1.091904 S    
C109  H49   1.111564 S    
C57   C79   1.384210 A    
C120  H84   1.106920 S    
N9    N17   1.393242 A    
C91   C92   1.366785 A    
C23   C47   1.380957 A    
C17   N17   1.340753 A    
C118  H77   1.103007 S    
C51   C55   1.339228 D    
C61   C65   1.420147 A    
C72   Br8   1.920116 S    
C87   Br11  1.968040 S    
C105  H37   1.112364 S    
C20   C44   1.388907 A    
C19   N19   1.340729 A    
C111  H57   1.109165 S    
C97   H25   1.075785 S    
C20   N20   1.340088 A    
C114  H64   1.110273 S    
C5    C37   1.383895 A    
C115  H67   1.109834 S    
C83   C85   1.517010 S    
C11   N11   1.319206 A    
C15   C47   1.373813 A    
