data_mof_unit_pretest_654.cif
_audit_creation_date              2012-12-11T15:47:01-0500
_audit_creation_method            fapswitch 2.2
_symmetry_space_group_name_H-M    P1
_symmetry_Int_Tables_number       1
_space_group_crystal_system       triclinic
_cell_length_a                    11.551848
_cell_length_b                    11.534381
_cell_length_c                    19.555185
_cell_angle_alpha                 90.469462
_cell_angle_beta                  90.027459
_cell_angle_gamma                 59.954608
_cell_volume                      2255.38718307

loop_
_atom_site_label
_atom_site_type_symbol
_atom_type_description
_atom_site_fract_x
_atom_site_fract_y
_atom_site_fract_z
_atom_type_partial_charge
C1    C     C_R   0.640410 0.117357 0.599264 0.546833
C2    C     C_1   0.652896 0.149725 0.668641 0.006150
C3    C     C_R   0.674650 0.637747 0.199152 0.019522
C4    C     C_R   0.612408 0.746057 0.598648 0.540770
C5    C     C_R   0.584251 0.616584 0.236526 0.027722
C6    C     C_R   0.579048 0.625048 0.306207 0.006346
C7    C     C_R   0.773471 0.651275 0.305839 -0.172808
C8    C     C_R   0.776612 0.645014 0.234450 -0.174281
C9    C     C_3   0.436710 0.678860 0.228584 -0.241263
C10   C     C_3   0.429373 0.686850 0.305644 -0.214892
C11   C     C_R   0.664120 0.658477 0.341214 0.014482
C12   C     C_1   0.641164 0.703939 0.668006 0.006259
C13   C     C_R   0.158690 0.185883 0.187764 0.010006
C14   C     C_R   0.211551 0.256633 0.220644 0.004500
C15   C     C_R   0.236193 0.241586 0.289517 0.020978
C16   C     C_R   0.240974 0.145307 0.598189 0.550899
C17   C     C_R   0.182774 0.065480 0.293505 -0.153930
C18   C     C_R   0.155914 0.081055 0.223363 -0.151977
C19   C     C_3   0.164944 0.403225 0.224219 -0.246768
C20   C     C_3   0.189895 0.386690 0.300422 -0.234017
C21   C     C_R   0.212339 0.154023 0.328208 0.009755
C22   C     C_R   0.687200 0.194404 0.199053 0.006616
C23   C     C_1   0.126712 0.198758 0.859289 0.004477
C24   C     C_R   0.792530 0.088369 0.233493 -0.014053
C25   C     C_R   0.786952 0.070653 0.302200 0.067134
C26   C     C_R   0.575807 0.277270 0.308464 -0.158105
C27   C     C_R   0.582207 0.294738 0.237953 -0.156188
C28   C     C_R   0.645846 0.113634 0.403383 0.542382
C29   C     C_3   0.862515 0.941873 0.217744 -0.243494
C30   C     C_3   0.855573 0.921291 0.293973 0.166167
C31   C     C_R   0.673584 0.158462 0.339738 -0.003826
C32   C     C_R   0.081806 0.231129 0.928594 0.545829
C33   C     C_R   0.683987 0.604344 0.929492 0.545685
C34   C     C_1   0.171491 0.170279 0.727711 -0.029051
C35   C     C_R   0.708490 0.206658 0.930117 0.546070
C36   C     C_R   0.084757 0.234691 0.124592 0.549110
C37   C     C_R   0.684700 0.607532 0.127117 0.543301
C38   C     C_R   0.710115 0.212519 0.128032 0.550338
C39   C     C_R   0.619088 0.734341 0.404193 0.537808
C40   C     C_R   0.248611 0.138741 0.399910 0.553839
C41   C     C_1   0.670493 0.646379 0.860117 0.004564
C42   C     C_1   0.654745 0.683673 0.728431 -0.029482
C43   C     C_1   0.663503 0.666608 0.799684 -0.030341
C44   C     C_1   0.150150 0.182259 0.798937 -0.029884
C45   C     C_1   0.195275 0.160920 0.667383 0.006949
C46   C     C_1   0.678760 0.191210 0.860764 0.004416
C47   C     C_1   0.658536 0.167245 0.729028 -0.029117
C48   C     C_1   0.665787 0.180867 0.800331 -0.029817
Cr1   Cr    Cr6+3 0.404720 0.198220 0.499960 1.030085
Cr2   Cr    Cr6+3 0.698290 0.897110 0.500380 1.091467
Cr3   Cr    Cr6+3 0.396970 0.904720 0.499610 1.059650
Cr4   Cr    Cr6+3 0.926290 0.152010 0.028150 1.028382
Cr5   Cr    Cr6+3 0.921440 0.451830 0.027490 1.027833
Cr6   Cr    Cr6+3 0.626370 0.446880 0.028730 1.028717
H1    H     H_    0.847250 0.665640 0.332335 0.191249
H2    H     H_    0.854260 0.651802 0.207069 0.130117
H3    H     H_    0.406024 0.609481 0.206602 0.151985
H4    H     H_    0.390839 0.778681 0.203881 0.143054
H5    H     H_    0.374221 0.792015 0.323973 0.184642
H6    H     H_    0.396652 0.619942 0.328520 0.159266
H7    H     H_    0.173411 0.989999 0.320983 0.208780
H8    H     H_    0.121013 0.019569 0.199004 0.160763
H9    H     H_    0.057835 0.467020 0.211796 0.164233
H10   H     H_    0.121083 0.657137 0.396487 0.357102
H11   H     H_    0.233704 0.428493 0.196890 0.140013
H12   H     H_    0.271310 0.404628 0.317197 0.144103
H13   H     H_    0.096640 0.438702 0.331495 0.169625
H14   H     H_    0.490085 0.351114 0.337153 0.127192
H15   H     H_    0.503574 0.382852 0.213748 0.125311
H16   H     H_    0.963893 0.906275 0.196390 0.188457
H17   H     H_    0.799807 0.913096 0.186846 0.093694
H18   H     H_    0.788490 0.881694 0.306608 0.109372
O1    O     O_R   0.267750 0.231960 0.575440 -0.503169
O2    O     O_R   0.596230 0.579400 0.952760 -0.504433
O3    O     O_R   0.639160 0.321170 0.958690 -0.493688
O4    O     O_R   0.527290 0.186640 0.570530 -0.497455
O5    O     O_R   0.821370 0.124220 0.104400 -0.518595
O6    O     O_R   0.037020 0.167050 0.097880 -0.508456
O7    O     O_R   0.056310 0.349620 0.102920 -0.519765
O8    O     O_R   0.797790 0.564880 0.097980 -0.507038
O9    O     O_R   0.596000 0.584270 0.104310 -0.518712
O10   O     O_R   0.638950 0.325690 0.099180 -0.504382
O11   O     O_3   0.824700 0.350240 0.028120 -0.254706
O12   O     O_R   0.685950 0.784660 0.430010 -0.493901
O13   O     O_R   0.728110 0.003450 0.576380 -0.492305
O14   O     O_R   0.682980 0.789190 0.570500 -0.493401
O15   O     O_R   0.499300 0.771880 0.575540 -0.503513
O16   O     O_R   0.285350 0.030870 0.569740 -0.486531
O17   O     O_R   0.270960 0.227070 0.423890 -0.518700
O18   O     O_R   0.530270 0.182120 0.430040 -0.515790
O19   O     O_R   0.731320 0.998570 0.424830 -0.461263
O20   O     O_2   0.127427 0.790750 0.286399 -0.370235
O21   O     O_2   0.022762 0.930088 0.388397 -0.279389
O22   O     O_3   0.028901 0.703397 0.378116 -0.549434
O23   O     O_R   0.502510 0.767000 0.423980 -0.524557
O24   O     O_R   0.288320 0.026340 0.429250 -0.490602
O25   O     O_3   0.499990 0.000020 0.499980 -0.271149
O26   O     O_R   0.821590 0.119350 0.952850 -0.505082
O27   O     O_R   0.037230 0.162540 0.957390 -0.494714
O28   O     O_R   0.056530 0.344750 0.951370 -0.504511
O29   O     O_R   0.798000 0.560370 0.957490 -0.493555
S1    S     S_3+6 0.014410 0.837173 0.336839 -0.031681

loop_
_geom_bond_atom_site_label_1
_geom_bond_atom_site_label_2
_ccdc_geom_bond_type
C25   C31   A    
Cr3   O25   S    
C20   H13   S    
C19   C20   S    
C7    H1    S    
Cr1   O18   S    
C8    H2    S    
Cr2   O12   S    
C7    C8    A    
C4    O15   A    
C7    C11   A    
C35   O3    A    
C26   C27   A    
C13   C18   A    
C33   O29   A    
C20   H12   S    
Cr5   O7    S    
C39   O12   A    
C9    H4    S    
C5    C6    A    
C4    O14   A    
C22   C38   S    
C1    C2    S    
C24   C29   S    
C12   C42   T    
Cr2   O13   S    
C17   H7    S    
Cr6   O2    S    
C19   H9    S    
C40   O17   A    
C4    C12   S    
C35   O26   A    
C9    C10   S    
C9    H3    S    
C27   H15   S    
O20   S1    D    
Cr3   O24   S    
C26   C31   A    
C13   C14   A    
C38   O10   A    
C41   C43   T    
C37   O9    A    
C40   O24   A    
Cr4   O6    S    
Cr6   O11   S    
Cr5   O28   S    
C1    O13   A    
C15   C20   S    
C37   O8    A    
C46   C48   T    
C16   O1    A    
Cr5   O8    S    
C34   C44   S    
C24   C25   A    
C13   C36   S    
C3    C8    A    
Cr3   O15   S    
C6    C11   A    
C18   H8    S    
Cr1   O25   S    
C17   C21   A    
C23   C44   T    
C32   O28   A    
Cr3   O16   S    
Cr4   O11   S    
C10   H6    S    
C5    C9    S    
C29   C30   S    
Cr2   O19   S    
C47   C48   S    
C30   S1    S    
C17   C18   A    
Cr1   O4    S    
C34   C45   T    
C11   C39   S    
C39   O23   A    
C22   C27   A    
Cr1   O1    S    
C42   C43   S    
Cr4   O5    S    
Cr6   O10   S    
C29   H16   S    
C25   C30   S    
Cr2   O25   S    
C1    O4    A    
C14   C19   S    
C28   C31   S    
Cr1   O17   S    
C3    C5    A    
C36   O7    A    
C16   C45   S    
C6    C10   S    
C30   H18   S    
C38   O5    A    
C2    C47   T    
Cr4   O27   S    
Cr5   O29   S    
C32   O27   A    
Cr5   O11   S    
C26   H14   S    
C23   C32   S    
C10   H5    S    
C33   C41   S    
C36   O6    A    
C21   C40   S    
Cr4   O26   S    
C19   H11   S    
C28   O19   A    
C22   C24   A    
Cr2   O14   S    
H10   O22   S    
Cr6   O3    S    
C33   O2    A    
C15   C21   A    
C3    C37   S    
O21   S1    D    
C16   O16   A    
C14   C15   A    
C28   O18   A    
C35   C46   S    
Cr6   O9    S    
O22   S1    S    
Cr3   O23   S    
C29   H17   S    
