data_mof_unit_pretest_833.cif
_audit_creation_date              2012-12-10T18:42:33-0500
_audit_creation_method            fapswitch 2.2
_symmetry_space_group_name_H-M    P1
_symmetry_Int_Tables_number       1
_space_group_crystal_system       triclinic
_cell_length_a                    8.597481
_cell_length_b                    10.678855
_cell_length_c                    9.916431
_cell_angle_alpha                 90.837459
_cell_angle_beta                  98.700306
_cell_angle_gamma                 91.190167
_cell_volume                      899.624175537

loop_
_atom_site_label
_atom_site_type_symbol
_atom_type_description
_atom_site_fract_x
_atom_site_fract_y
_atom_site_fract_z
_atom_type_partial_charge
C1    C     C_R   0.499119 0.260158 0.499202 0.884362
C2    C     C_R   0.443381 0.064691 0.605448 -0.159770
C3    C     C_R   0.501766 0.872406 0.501395 -0.017286
C4    C     C_R   0.498234 0.127593 0.498605 -0.017285
C5    C     C_R   0.584503 0.587836 0.085858 -0.114322
C6    C     C_R   0.415497 0.412163 0.914142 -0.114322
C7    C     C_R   0.584815 0.588502 0.943310 0.237778
C8    C     C_R   0.415185 0.411498 0.056690 0.237778
C9    C     C_R   0.500881 0.739842 0.500798 0.884362
C10   C     C_R   0.201334 0.496787 0.464971 0.946143
C11   C     C_R   0.798666 0.503213 0.535029 0.946144
C12   C     C_2   0.038032 0.473200 0.453000 -0.084123
C13   C     C_2   0.961968 0.526799 0.547000 -0.084123
C14   C     C_R   0.554686 0.063554 0.393098 -0.137163
C15   C     C_R   0.445314 0.936446 0.606902 -0.137163
C16   C     C_R   0.556619 0.935309 0.394552 -0.159770
H1    H     H_    0.598884 0.112359 0.311109 0.185952
H2    H     H_    0.401116 0.887640 0.688890 0.185951
H3    H     H_    0.601807 0.885637 0.313146 0.165003
H4    H     H_    0.398193 0.114363 0.686854 0.165003
H5    H     H_    0.652024 0.657950 0.151148 0.161370
H6    H     H_    0.347976 0.342050 0.848852 0.161371
I1    I     I_    0.948973 0.315149 0.326182 -0.284634
I2    I     I_    0.051027 0.684847 0.673820 -0.284633
I3    I     I_    0.722249 0.733976 0.876959 -0.268412
I4    I     I_    0.277751 0.266024 0.123041 -0.268412
N1    N     N_R   0.499960 0.499970 0.857200 -0.112840
N2    N     N_R   0.500040 0.500030 0.142800 -0.112840
O1    O     O_R   0.499990 0.316750 0.614620 -0.635050
O2    O     O_R   0.500010 0.683250 0.385380 -0.635050
O3    O     O_R   0.499990 0.316780 0.385290 -0.594955
O4    O     O_R   0.500010 0.683220 0.614710 -0.594955
O5    O     O_R   0.271750 0.499990 0.587840 -0.605616
O6    O     O_R   0.728250 0.500010 0.412160 -0.605617
O7    O     O_R   0.271750 0.500010 0.358510 -0.579575
O8    O     O_R   0.728250 0.499990 0.641490 -0.579575
Zn1   Zn    Zn3+2 0.500000 0.499980 0.653120 1.013136
Zn2   Zn    Zn3+2 0.500000 0.500020 0.346880 1.013136

loop_
_geom_bond_atom_site_label_1
_geom_bond_atom_site_label_2
_ccdc_geom_bond_type
C15   H2    S    
C2    C4    A    
C10   O7    A    
C3    C9    S    
C5    N2    A    
C8    I4    S    
C6    N1    A    
C14   H1    S    
O3    Zn2   S    
N2    Zn2   S    
C1    C4    S    
C1    O1    A    
C7    N1    A    
O4    Zn1   S    
C2    C15   A    
C11   C13   S    
C12   I1    S    
C10   C12   S    
C9    O2    A    
N1    Zn1   S    
C16   H3    S    
C11   O8    A    
C10   O5    A    
C4    C14   A    
C8    N2    A    
C14   C16   A    
C2    H4    S    
C6    H6    S    
C1    O3    A    
O7    Zn2   S    
C3    C15   A    
C12   C13   D    
O2    Zn2   S    
O1    Zn1   S    
C5    C7    A    
O8    Zn1   S    
C6    C8    A    
C9    O4    A    
O6    Zn2   S    
C11   O6    A    
O5    Zn1   S    
C3    C16   A    
C13   I2    S    
C5    H5    S    
C7    I3    S    
