data_mof_unit_pretest_647.cif
_audit_creation_date              2012-12-11T14:29:35-0500
_audit_creation_method            fapswitch 2.2
_symmetry_space_group_name_H-M    P1
_symmetry_Int_Tables_number       1
_space_group_crystal_system       triclinic
_cell_length_a                    6.934659
_cell_length_b                    14.740888
_cell_length_c                    16.321431
_cell_angle_alpha                 90.380799
_cell_angle_beta                  91.351307
_cell_angle_gamma                 90.621432
_cell_volume                      1667.82429721

loop_
_atom_site_label
_atom_site_type_symbol
_atom_type_description
_atom_site_fract_x
_atom_site_fract_y
_atom_site_fract_z
_atom_type_partial_charge
O1    O     O_R   0.494400 0.416610 0.413880 -0.530846
O2    O     O_R   0.823920 0.406790 0.585520 -0.529072
O3    O     O_R   0.994250 0.583390 0.586120 -0.536231
C1    C     C_R   0.656152 0.387001 0.614748 0.757575
O4    O     O_R   0.824110 0.405730 0.414490 -0.516748
O5    O     O_R   0.994440 0.582310 0.413870 -0.572024
C2    C     C_R   0.650995 0.382173 0.387462 0.791668
O6    O     O_R   0.494210 0.417690 0.586130 -0.515524
O7    O     O_3   0.660810 0.557940 0.500000 -0.388580
V1    V     V_3+5 0.935650 0.489250 0.500000 1.603921
O8    O     O_R   0.324160 0.593210 0.414480 -0.514673
C3    C     C_R   0.154103 0.614360 0.386006 0.669560
O9    O     O_R   0.323970 0.594270 0.585510 -0.534436
C4    C     C_R   0.157352 0.615658 0.614442 0.776115
V2    V     V_3+5 0.435660 0.510750 0.500000 1.619054
O10   O     O_3   0.160630 0.442060 0.500000 -0.338989
H1    H     H_    0.237137 0.924453 0.516652 0.187372
C5    C     C_R   0.125975 0.551250 0.786359 0.337025
C6    C     C_R   0.081905 0.521258 0.864177 -0.171136
C7    C     C_R   0.026548 0.581275 0.923682 -0.145760
C8    C     C_R   0.021957 0.673887 0.908721 0.343168
C9    C     C_R   0.083983 0.710163 0.832294 -0.040253
C10   C     C_R   0.122087 0.646332 0.767160 -0.039468
C11   C     C_R   0.109839 0.805932 0.818590 -0.133607
C12   C     C_R   0.148315 0.836642 0.738160 0.055094
C13   C     C_R   0.166823 0.773684 0.672267 0.042775
C14   C     C_R   0.153243 0.679052 0.686161 -0.146415
C15   C     C_R   0.162774 0.930698 0.721145 -0.133395
C16   C     C_R   0.194575 0.961556 0.642079 -0.076083
C17   C     C_R   0.212785 0.900142 0.578038 -0.059440
C18   C     C_R   0.198938 0.807406 0.592538 -0.134954
H2    H     H_    0.085196 0.449566 0.878404 0.191667
H3    H     H_    0.981943 0.554704 0.982119 0.204434
H4    H     H_    0.146582 0.981790 0.768278 0.135693
H5    H     H_    0.203736 0.033611 0.630286 0.186593
H6    H     H_    0.213858 0.762677 0.540325 0.130506
C19   C     C_2   0.005263 0.691196 0.263863 -0.119576
C20   C     C_2   0.140890 0.689125 0.326031 0.177745
C21   C     C_2   0.981804 0.771736 0.209776 0.036999
C22   C     C_2   0.131127 0.808865 0.170821 -0.214323
H7    H     H_    0.836441 0.794506 0.195454 0.184044
H8    H     H_    0.274855 0.782005 0.181189 0.187846
C23   C     C_2   0.770251 0.211660 0.784060 -0.179541
C24   C     C_2   0.607816 0.168543 0.808335 0.236187
H9    H     H_    0.904175 0.201091 0.818344 0.153099
C25   C     C_2   0.784631 0.270561 0.710530 -0.058499
C26   C     C_2   0.644245 0.327399 0.686625 -0.204272
H10   H     H_    0.919960 0.270539 0.678363 0.189462
H11   H     H_    0.514891 0.332648 0.722116 0.228233
C27   C     C_2   0.704118 0.171074 0.245903 0.232264
C28   C     C_2   0.638820 0.187346 0.168424 0.063611
C29   C     C_2   0.748544 0.245087 0.306375 0.374161
C30   C     C_2   0.617367 0.309773 0.324180 -0.292059
O11   O     O_R   0.770210 0.079270 0.910680 -0.565126
O12   O     O_R   0.440150 0.091160 0.082270 -0.540951
O13   O     O_R   0.269970 0.914530 0.082860 -0.545101
C31   C     C_R   0.612482 0.113249 0.109281 0.811144
O14   O     O_R   0.440480 0.090100 0.911240 -0.521200
O15   O     O_R   0.270310 0.913460 0.910610 -0.546099
C32   C     C_R   0.607652 0.109791 0.881637 0.689362
O16   O     O_R   0.769870 0.080340 0.082930 -0.532891
O17   O     O_3   0.603660 0.938980 0.996790 -0.360616
V3    V     V_3+5 0.328750 0.007610 0.996740 1.579205
O18   O     O_R   0.940600 0.902510 0.911180 -0.518582
C33   C     C_R   0.107606 0.875188 0.886933 0.746232
O19   O     O_R   0.940270 0.903570 0.082200 -0.514316
C34   C     C_R   0.110781 0.881766 0.109943 0.811236
V4    V     V_3+5 0.828770 0.986010 0.996670 1.600183
O20   O     O_3   0.103730 0.054750 0.996710 -0.376446
Cl1   Cl    Cl    0.294350 0.783274 0.348390 -0.617192
Cl2   Cl    Cl    0.390687 0.168867 0.748945 -0.691668
Cl3   Cl    Cl    0.737480 0.058456 0.279892 -0.564063
Cl4   Cl    Cl    0.638785 0.297452 0.126148 -0.604160
Cl5   Cl    Cl    0.970371 0.236778 0.361105 -0.561877
Cl6   Cl    Cl    0.194406 0.462345 0.720677 -0.676501
C35   C     C_2   0.417245 0.302541 0.287663 0.538283
H12   H     H_    0.355137 0.236891 0.271056 0.086951
O21   O     O_2   0.321361 0.370181 0.274544 -0.478940
Cl7   Cl    Cl    0.904796 0.733758 0.985643 -0.650327
C36   C     C_2   0.875234 0.612173 0.245375 0.458179
H13   H     H_    0.902551 0.546166 0.271811 0.058710
O22   O     O_2   0.737060 0.619591 0.198199 -0.483402

loop_
_geom_bond_atom_site_label_1
_geom_bond_atom_site_label_2
_ccdc_geom_bond_type
O19   V4    S    
C20   Cl1   S    
C5    Cl6   S    
C6    C7    A    
C1    O6    A    
C26   H11   S    
O11   C32   A    
C12   C15   A    
C13   C14   A    
C16   C17   A    
O18   V4    S    
C15   C16   A    
C19   C20   D    
C35   O21   D    
C29   Cl5   S    
C18   H6    S    
O5    C3    A    
C17   C18   A    
O11   V4    S    
O14   C32   A    
V2    O10   S    
C24   Cl2   S    
C5    C6    A    
C27   Cl3   S    
O8    V2    S    
V3    O20   S    
V4    O20   S    
C22   C34   S    
O12   V3    S    
C27   C29   S    
C28   C31   S    
C10   C14   A    
C4    C14   S    
O7    V1    S    
C22   H8    S    
O19   C34   A    
C15   H4    S    
C13   C18   A    
O9    C4    A    
H1    C17   S    
C6    H2    S    
C19   C36   S    
C25   H10   S    
C5    C10   A    
C35   H12   S    
C36   O22   D    
C21   C22   D    
O4    C2    A    
C12   C13   A    
O2    C1    A    
C23   C24   D    
O17   V3    S    
C8    Cl7   S    
C27   C28   D    
O13   V3    S    
C11   C12   A    
C23   H9    S    
O3    C4    A    
C11   C33   S    
O1    V2    S    
C7    H3    S    
O6    V2    S    
O12   C31   A    
C9    C11   A    
C30   C35   S    
C2    C30   S    
O2    V1    S    
C29   C30   D    
O14   V3    S    
C25   C26   D    
O1    C2    A    
C28   Cl4   S    
C36   H13   S    
O5    V1    S    
O8    C3    A    
C31   O16   A    
O13   C34   A    
C16   H5    S    
O15   V3    S    
O17   V4    S    
O18   C33   A    
O9    V2    S    
O7    V2    S    
O4    V1    S    
C19   C21   S    
O3    V1    S    
V1    O10   S    
O15   C33   A    
O16   V4    S    
C24   C32   S    
C3    C20   S    
C23   C25   S    
C7    C8    A    
C21   H7    S    
C9    C10   A    
C8    C9    A    
C1    C26   S    
