data_mof_unit_pretest_1774.cif
_audit_creation_date              2012-12-10T20:55:30-0500
_audit_creation_method            fapswitch 2.2
_symmetry_space_group_name_H-M    P1
_symmetry_Int_Tables_number       1
_space_group_crystal_system       triclinic
_cell_length_a                    26.003916
_cell_length_b                    27.741857
_cell_length_c                    19.020338
_cell_angle_alpha                 89.93099
_cell_angle_beta                  133.18261
_cell_angle_gamma                 90.086304
_cell_volume                      10005.1727223

loop_
_atom_site_label
_atom_site_type_symbol
_atom_type_description
_atom_site_fract_x
_atom_site_fract_y
_atom_site_fract_z
_atom_type_partial_charge
C1    C     C_R   0.000026 0.879280 0.500036 0.506232
C2    C     C_R   0.298432 0.856966 0.431822 -0.041931
C3    C     C_1   0.181070 0.249990 0.862093 0.026719
C4    C     C_1   0.681024 0.250014 0.862115 0.024634
C5    C     C_1   0.318976 0.749986 0.137885 0.024429
C6    C     C_1   0.318930 0.250010 0.137907 0.026703
C7    C     C_1   0.681070 0.749990 0.862093 0.026582
C8    C     C_1   0.224516 0.750007 0.949073 -0.024420
C9    C     C_1   0.775484 0.249992 0.050927 -0.024178
C10   C     C_1   0.775456 0.750006 0.050937 -0.016807
C11   C     C_1   0.224544 0.249994 0.949063 -0.016644
C12   C     C_1   0.724516 0.250007 0.949073 -0.024199
C13   C     C_R   0.414496 0.198244 0.741543 -0.053155
C14   C     C_1   0.275484 0.749993 0.050927 -0.024421
C15   C     C_1   0.275456 0.250006 0.050937 -0.016652
C16   C     C_1   0.724544 0.749994 0.949063 -0.016805
C17   C     C_1   0.999804 0.568943 0.499877 0.061819
C18   C     C_1   0.000182 0.431057 0.500109 0.061825
C19   C     C_1   0.499815 0.068943 0.499889 0.061784
C20   C     C_1   0.500189 0.931057 0.500116 0.061848
C21   C     C_1   0.999893 0.525463 0.499927 0.005440
C22   C     C_1   0.000086 0.474537 0.500051 0.005363
C23   C     C_1   0.499908 0.025463 0.499943 0.005444
C24   C     C_R   0.585631 0.802322 0.259027 -0.053053
C25   C     C_1   0.500099 0.974537 0.500065 0.005527
C26   C     C_R   0.176419 0.598063 0.566690 0.250203
C27   C     C_R   0.823220 0.401716 0.432216 0.250058
C28   C     C_R   0.983774 0.693437 0.830370 0.264902
C29   C     C_R   0.016036 0.305627 0.168831 0.264946
C30   C     C_R   0.676637 0.098192 0.567331 0.250120
C31   C     C_R   0.323547 0.901936 0.433255 0.250184
C32   C     C_R   0.483921 0.194039 0.830776 0.264933
C33   C     C_R   0.516207 0.806713 0.169857 0.264917
C34   C     C_R   0.193515 0.657663 0.490300 0.006614
C35   C     C_R   0.806130 0.342363 0.508958 0.006558
C36   C     C_R   0.893398 0.739043 0.684123 0.008397
C37   C     C_R   0.106540 0.260512 0.315784 0.008346
C38   C     C_R   0.693725 0.157663 0.490755 0.006527
C39   C     C_R   0.306481 0.842341 0.509684 0.006612
C40   C     C_R   0.393429 0.239368 0.684162 0.008334
C41   C     C_R   0.999974 0.120720 0.499963 0.506191
C42   C     C_R   0.606618 0.761001 0.315915 0.008379
C43   C     C_R   0.160927 0.626408 0.411699 -0.094496
C44   C     C_R   0.838307 0.373879 0.587087 -0.094611
C45   C     C_R   0.942463 0.776252 0.718458 -0.083728
C46   C     C_R   0.057585 0.223297 0.281986 -0.083643
C47   C     C_R   0.661210 0.126319 0.412300 -0.094456
C48   C     C_R   0.339111 0.873591 0.588306 -0.094480
C49   C     C_R   0.442404 0.276598 0.718174 -0.083782
C50   C     C_R   0.557569 0.723765 0.281469 -0.083881
C51   C     C_R   0.135598 0.581556 0.410279 -0.135533
C52   C     C_R   0.500026 0.379280 0.500037 0.506188
C53   C     C_R   0.863423 0.418739 0.588098 -0.135551
C54   C     C_R   0.011724 0.771777 0.807557 -0.140332
C55   C     C_R   0.988313 0.227533 0.192817 -0.140441
C56   C     C_R   0.635925 0.081484 0.411047 -0.135459
C57   C     C_R   0.364445 0.918439 0.589713 -0.135505
C58   C     C_R   0.511680 0.272269 0.807297 -0.140436
C59   C     C_R   0.488298 0.728273 0.192398 -0.140381
C60   C     C_R   0.143188 0.567418 0.487542 -0.061363
C61   C     C_R   0.856042 0.432620 0.510901 -0.061476
C62   C     C_R   0.032448 0.730382 0.863356 -0.053988
C63   C     C_R   0.499974 0.620720 0.499963 0.506225
C64   C     C_R   0.967474 0.268684 0.136391 -0.054074
C65   C     C_R   0.643481 0.067457 0.488329 -0.061378
C66   C     C_R   0.356818 0.932576 0.512419 -0.061353
C67   C     C_R   0.532505 0.231002 0.863443 -0.054031
C68   C     C_R   0.467548 0.769735 0.136750 -0.053964
C69   C     C_R   0.271436 0.707243 0.487732 -0.134543
C70   C     C_R   0.728410 0.292787 0.511957 -0.134390
C71   C     C_R   0.764641 0.741428 0.584603 -0.139920
C72   C     C_R   0.235321 0.258383 0.415327 -0.139817
C73   C     C_R   0.771565 0.207225 0.487992 -0.134430
C74   C     C_R   0.201528 0.643039 0.568134 -0.041896
C75   C     C_R   0.228563 0.792763 0.512265 -0.134540
C76   C     C_R   0.264668 0.241598 0.584657 -0.139840
C77   C     C_R   0.735368 0.758587 0.415418 -0.139928
C78   C     C_R   0.302198 0.751178 0.497088 0.025156
C79   C     C_R   0.697793 0.248837 0.502891 0.025277
C80   C     C_R   0.695012 0.748655 0.497328 0.027291
C81   C     C_R   0.304980 0.251344 0.502656 0.027392
C82   C     C_R   0.802192 0.251172 0.497076 0.025245
C83   C     C_R   0.197801 0.748827 0.502908 0.025154
C84   C     C_R   0.195011 0.248644 0.497331 0.027393
C85   C     C_R   0.798306 0.356741 0.431169 -0.041821
C86   C     C_R   0.804998 0.751355 0.502690 0.027282
C87   C     C_R   0.280077 0.794580 0.508217 -0.022468
C88   C     C_R   0.720041 0.205420 0.492023 -0.022413
C89   C     C_R   0.679806 0.756739 0.411324 -0.023930
C90   C     C_R   0.320222 0.243443 0.588728 -0.023824
C91   C     C_R   0.779917 0.294597 0.507888 -0.022280
C92   C     C_R   0.219922 0.705426 0.491779 -0.022463
C93   C     C_R   0.179761 0.256521 0.411246 -0.023734
C94   C     C_R   0.820207 0.743279 0.588701 -0.023875
C95   C     C_1   0.000063 0.931051 0.500070 0.023115
C96   C     C_R   0.914361 0.697789 0.741164 -0.053170
C97   C     C_1   0.999937 0.068949 0.499930 0.023126
C98   C     C_1   0.500063 0.431051 0.500070 0.023111
C99   C     C_1   0.499937 0.568949 0.499930 0.023097
C100  C     C_1   0.000032 0.974533 0.500034 -0.020586
C101  C     C_1   0.999968 0.025467 0.499965 -0.020582
C102  C     C_1   0.500032 0.474533 0.500035 -0.020602
C103  C     C_1   0.499968 0.525467 0.499965 -0.020609
C104  C     C_R   0.999910 0.620714 0.499942 0.538160
C105  C     C_R   0.000088 0.379285 0.500056 0.538361
C106  C     C_R   0.499914 0.120714 0.499946 0.538238
C107  C     C_R   0.085453 0.301520 0.258121 -0.053278
C108  C     C_R   0.500087 0.879285 0.500055 0.538157
C109  C     C_R   0.860193 0.750472 0.501010 0.502200
C110  C     C_R   0.139816 0.249536 0.499011 0.502112
C111  C     C_R   0.140801 0.749565 0.500985 0.504295
C112  C     C_R   0.859205 0.250428 0.499025 0.504185
C113  C     C_R   0.360183 0.250464 0.500990 0.502181
C114  C     C_R   0.639808 0.749530 0.498994 0.502262
C115  C     C_R   0.640795 0.249572 0.500973 0.504272
C116  C     C_R   0.359198 0.750436 0.499012 0.504305
C117  C     C_R   0.870721 0.749990 0.241453 0.508887
C118  C     C_R   0.701709 0.143148 0.568614 -0.041955
C119  C     C_R   0.129279 0.250010 0.758546 0.508919
C120  C     C_R   0.129262 0.750007 0.758586 0.514031
C121  C     C_R   0.870738 0.249993 0.241414 0.514156
C122  C     C_R   0.370721 0.249990 0.241453 0.508915
C123  C     C_R   0.629278 0.750010 0.758546 0.508894
C124  C     C_R   0.629262 0.250007 0.758586 0.514116
C125  C     C_R   0.370738 0.749993 0.241414 0.514055
C126  C     C_1   0.181024 0.750014 0.862115 0.024412
C127  C     C_1   0.818976 0.249985 0.137885 0.024671
C128  C     C_1   0.818930 0.750010 0.137907 0.026577
Cl1   Cl    Cl    0.187096 0.580057 0.664469 -0.605145
Cl2   Cl    Cl    0.812811 0.419399 0.334516 -0.605193
Cl3   Cl    Cl    0.009868 0.641518 0.900576 -0.558233
Cl4   Cl    Cl    0.989807 0.357223 0.097805 -0.558115
Cl5   Cl    Cl    0.687240 0.080329 0.665112 -0.605081
Cl6   Cl    Cl    0.312833 0.919935 0.335441 -0.605075
Cl7   Cl    Cl    0.510138 0.142288 0.901430 -0.558145
Cl8   Cl    Cl    0.490079 0.858721 0.099856 -0.558199
H1    H     H_    0.123477 0.532643 0.485987 0.146695
H2    H     H_    0.888638 0.442766 0.648785 0.144385
H3    H     H_    0.049419 0.800364 0.833261 0.120327
H4    H     H_    0.950704 0.198945 0.167535 0.120304
H5    H     H_    0.610438 0.057592 0.350102 0.144438
H6    H     H_    0.390019 0.942257 0.650785 0.144322
H7    H     H_    0.549306 0.300871 0.832753 0.120348
H8    H     H_    0.450613 0.699663 0.166604 0.120342
H9    H     H_    0.289675 0.673969 0.481077 0.137302
H10   H     H_    0.710049 0.326069 0.518378 0.137092
H11   H     H_    0.776033 0.736118 0.650623 0.139948
H12   H     H_    0.875594 0.467400 0.512140 0.146653
H13   H     H_    0.223914 0.263541 0.349266 0.139772
H14   H     H_    0.789907 0.173940 0.481544 0.137208
H15   H     H_    0.210324 0.826037 0.518920 0.137313
H16   H     H_    0.276080 0.236429 0.650719 0.139824
H17   H     H_    0.723973 0.763902 0.349396 0.139979
H18   H     H_    0.227378 0.666528 0.629803 0.133186
H19   H     H_    0.772752 0.333059 0.369835 0.133178
H20   H     H_    0.877101 0.668871 0.715750 0.145853
H21   H     H_    0.122624 0.330436 0.283094 0.145925
H22   H     H_    0.727498 0.166709 0.630170 0.133294
H23   H     H_    0.086246 0.727080 0.932140 0.150894
H24   H     H_    0.272555 0.833480 0.370138 0.133226
H25   H     H_    0.377307 0.169311 0.716383 0.145928
H26   H     H_    0.622879 0.831264 0.284540 0.145877
H27   H     H_    0.154497 0.637000 0.351233 0.138823
H28   H     H_    0.844578 0.363489 0.647504 0.138959
H29   H     H_    0.927112 0.808562 0.675999 0.112461
H30   H     H_    0.073026 0.191162 0.324908 0.112437
H31   H     H_    0.654795 0.136829 0.351813 0.138932
H32   H     H_    0.345571 0.863002 0.648798 0.138789
H33   H     H_    0.426976 0.308812 0.675451 0.112490
H34   H     H_    0.913673 0.271795 0.067542 0.150907
H35   H     H_    0.572939 0.691409 0.323824 0.112488
H36   H     H_    0.623796 0.032698 0.486901 0.146679
H37   H     H_    0.376533 0.967347 0.513964 0.146701
H38   H     H_    0.586311 0.227816 0.932250 0.150891
H39   H     H_    0.413741 0.773065 0.067993 0.150871
H40   H     H_    0.110057 0.557733 0.349224 0.144275
O1    O     O_3   0.000000 0.749990 0.500000 -0.449014
O2    O     O_R   0.441770 0.643730 0.444290 -0.533785
O3    O     O_R   0.441770 0.356270 0.444290 -0.531553
O4    O     O_R   0.558230 0.643730 0.555710 -0.531559
O5    O     O_R   0.997500 0.643710 0.555730 -0.517498
O6    O     O_R   0.002500 0.356290 0.444270 -0.517362
O7    O     O_R   0.002500 0.643710 0.444270 -0.532996
O8    O     O_R   0.997500 0.356290 0.555730 -0.532951
O9    O     O_R   0.497500 0.143710 0.555730 -0.517416
O10   O     O_R   0.502500 0.856290 0.444270 -0.517463
O11   O     O_R   0.502500 0.143710 0.444270 -0.532984
O12   O     O_3   1.000000 0.250010 0.500000 -0.449090
O13   O     O_R   0.497500 0.856290 0.555730 -0.533007
O14   O     O_R   0.856330 0.777850 0.444260 -0.546068
O15   O     O_R   0.143670 0.222150 0.555740 -0.546061
O16   O     O_R   0.143670 0.777850 0.555740 -0.541923
O17   O     O_R   0.856330 0.222150 0.444260 -0.541876
O18   O     O_R   0.356330 0.277850 0.444260 -0.546022
O19   O     O_R   0.643670 0.722150 0.555740 -0.546064
O20   O     O_R   0.643670 0.277850 0.555740 -0.541823
O21   O     O_R   0.356330 0.722150 0.444260 -0.541914
O22   O     O_R   0.087950 0.722120 0.444280 -0.528065
O23   O     O_3   0.500000 0.249990 0.500000 -0.449082
O24   O     O_R   0.912050 0.277880 0.555720 -0.527991
O25   O     O_R   0.912050 0.722120 0.555720 -0.530843
O26   O     O_R   0.087950 0.277880 0.444280 -0.530813
O27   O     O_R   0.587950 0.222120 0.444280 -0.528052
O28   O     O_R   0.412050 0.777880 0.555720 -0.528082
O29   O     O_R   0.412050 0.222120 0.555720 -0.530810
O30   O     O_R   0.587950 0.777880 0.444280 -0.530828
O31   O     O_R   0.863370 0.777840 0.287440 -0.531768
O32   O     O_R   0.136630 0.222160 0.712560 -0.531757
O33   O     O_R   0.136630 0.777840 0.712560 -0.529737
O34   O     O_3   0.500000 0.750010 0.500000 -0.449024
O35   O     O_R   0.863370 0.222160 0.287440 -0.529717
O36   O     O_R   0.363370 0.277840 0.287440 -0.531730
O37   O     O_R   0.636630 0.722160 0.712560 -0.531761
O38   O     O_R   0.636630 0.277840 0.712560 -0.529657
O39   O     O_R   0.363370 0.722160 0.287440 -0.529728
O40   O     O_R   0.924090 0.722120 0.287440 -0.531326
O41   O     O_R   0.075910 0.277880 0.712560 -0.531240
O42   O     O_R   0.075910 0.722120 0.712560 -0.521027
O43   O     O_R   0.924090 0.277880 0.287440 -0.520885
O44   O     O_R   0.424090 0.222120 0.287440 -0.531290
O45   O     O_R   0.058230 0.856270 0.555710 -0.533783
O46   O     O_R   0.575910 0.777880 0.712560 -0.531333
O47   O     O_R   0.575910 0.222120 0.712560 -0.520961
O48   O     O_R   0.424090 0.777880 0.287440 -0.521019
O49   O     O_R   0.941770 0.143730 0.444290 -0.533794
O50   O     O_R   0.941770 0.856270 0.444290 -0.531550
O51   O     O_R   0.058230 0.143730 0.555710 -0.531558
O52   O     O_R   0.558230 0.356270 0.555710 -0.533797
Zn1   Zn    Zn3+2 0.996430 0.710180 0.579620 0.981527
Zn2   Zn    Zn3+2 0.083190 0.210200 0.579630 0.953396
Zn3   Zn    Zn3+2 0.083190 0.789800 0.579630 0.962156
Zn4   Zn    Zn3+2 0.916810 0.210200 0.420370 0.962248
Zn5   Zn    Zn3+2 0.416810 0.289800 0.420370 0.953444
Zn6   Zn    Zn3+2 0.583190 0.710200 0.579630 0.953411
Zn7   Zn    Zn3+2 0.583190 0.289800 0.579630 0.962290
Zn8   Zn    Zn3+2 0.416810 0.710200 0.420370 0.962172
Zn9   Zn    Zn3+2 0.003570 0.289820 0.420380 0.981732
Zn10  Zn    Zn3+2 0.003570 0.710180 0.420380 0.970356
Zn11  Zn    Zn3+2 0.996430 0.289820 0.579620 0.970597
Zn12  Zn    Zn3+2 0.496430 0.210180 0.579620 0.981680
Zn13  Zn    Zn3+2 0.503570 0.789820 0.420380 0.981599
Zn14  Zn    Zn3+2 0.503570 0.210180 0.420380 0.970467
Zn15  Zn    Zn3+2 0.496430 0.789820 0.579620 0.970349
Zn16  Zn    Zn3+2 0.916810 0.789800 0.420370 0.953396

loop_
_geom_bond_atom_site_label_1
_geom_bond_atom_site_label_2
_ccdc_geom_bond_type
C1    O50   A    
C78   C87   A    
O16   Zn3   S    
C71   H11   S    
C115  O20   A    
C41   O51   A    
C37   C107  A    
O14   Zn16  S    
C79   C115  S    
C73   H14   S    
C31   C66   A    
C24   C42   A    
C113  O18   A    
C13   C32   A    
C99   C103  T    
C70   C91   A    
C39   C87   S    
C57   C66   A    
O3    Zn5   S    
C43   C51   A    
O23   Zn12  S    
C76   C84   A    
O26   Zn9   S    
O36   Zn5   S    
C48   C57   A    
C73   C88   A    
C71   C94   A    
C124  O38   A    
C83   C92   A    
C74   H18   S    
C9    C127  T    
C63   O2    A    
C122  O44   A    
C57   H6    S    
C50   C59   A    
C108  O10   A    
C17   C104  S    
C18   C105  S    
C106  O11   A    
C121  C127  S    
C29   C107  A    
O47   Zn12  S    
O23   Zn5   S    
C111  O22   A    
O1    Zn1   S    
C120  C126  S    
O48   Zn13  S    
C29   Cl4   S    
C20   C25   T    
C76   H16   S    
C67   H38   S    
C40   C49   A    
C40   C90   S    
C110  O15   A    
C69   H9    S    
C4    C124  S    
C1    O45   A    
O33   Zn3   S    
C80   C89   A    
C27   C85   A    
C79   C88   A    
C13   C40   A    
C63   C99   S    
O12   Zn9   S    
C86   C94   A    
C77   H17   S    
C6    C15   T    
C11   C15   S    
C2    C39   A    
C52   O52   A    
O38   Zn7   S    
O5    Zn1   S    
O52   Zn7   S    
C115  O27   A    
C46   C55   A    
O13   Zn15  S    
C121  O35   A    
C66   H37   S    
C50   H35   S    
C70   H10   S    
O34   Zn8   S    
C105  O6    A    
C4    C12   T    
C69   C92   A    
O22   Zn10  S    
O41   Zn11  S    
O8    Zn11  S    
C72   C81   A    
C60   H1    S    
O25   Zn1   S    
C104  O5    A    
C29   C64   A    
O4    Zn6   S    
C111  O16   A    
C21   C22   S    
C63   O4    A    
C121  O43   A    
C69   C78   A    
C51   H40   S    
C53   C61   A    
C7    C123  S    
C31   Cl6   S    
C10   C128  T    
C58   H7    S    
C71   C80   A    
C107  H21   S    
C68   H39   S    
C34   C92   S    
C2    H24   S    
C123  O46   A    
C41   O49   A    
O49   Zn4   S    
C114  O19   A    
C34   C43   A    
C65   H36   S    
C53   H2    S    
C122  O36   A    
C86   C109  S    
O12   Zn2   S    
O35   Zn4   S    
C75   H15   S    
O27   Zn14  S    
C95   C100  T    
C30   C118  A    
C117  O31   A    
C98   C102  T    
O44   Zn14  S    
C84   C110  S    
C82   C91   A    
C114  O30   A    
C38   C88   S    
C2    C31   A    
C27   C61   A    
C113  O29   A    
C117  O40   A    
C19   C23   T    
O6    Zn9   S    
O42   Zn1   S    
O1    Zn3   S    
O23   Zn7   S    
C59   C68   A    
C32   Cl7   S    
C59   H8    S    
C47   H31   S    
C36   C96   A    
O50   Zn16  S    
C54   H3    S    
C48   H32   S    
C124  O47   A    
C109  O14   A    
C1    C95   S    
C30   Cl5   S    
C77   C89   A    
C55   C64   A    
O45   Zn3   S    
C38   C47   A    
C37   C93   S    
C36   C45   A    
O19   Zn6   S    
C85   H19   S    
C35   C44   A    
C47   C56   A    
O29   Zn12  S    
C5    C14   T    
C26   Cl1   S    
C3    C119  S    
C42   C50   A    
C32   C67   A    
C56   H5    S    
C8    C126  T    
C7    C16   T    
C34   C74   A    
C77   C86   A    
C123  O37   A    
O34   Zn6   S    
C83   C111  S    
C108  O13   A    
C118  H22   S    
O30   Zn13  S    
O21   Zn8   S    
O51   Zn2   S    
C81   C90   A    
O18   Zn5   S    
C24   H26   S    
O37   Zn6   S    
C73   C82   A    
O28   Zn15  S    
O2    Zn8   S    
C76   C90   A    
C125  O48   A    
C75   C87   A    
C120  O33   A    
C35   C85   A    
C8    C14   S    
C46   H30   S    
O32   Zn2   S    
C70   C79   A    
C18   C22   T    
C61   H12   S    
C78   C116  S    
O39   Zn8   S    
C106  O9    A    
C80   C114  S    
O34   Zn13  S    
C55   H4    S    
C45   C54   A    
O34   Zn15  S    
O10   Zn13  S    
O46   Zn15  S    
C28   C62   A    
C13   H25   S    
C51   C60   A    
O20   Zn7   S    
C54   C62   A    
O1    Zn16  S    
C116  O28   A    
C24   C33   A    
C43   H27   S    
C110  O26   A    
C28   C96   A    
C42   C89   S    
O40   Zn10  S    
C28   Cl3   S    
C109  O25   A    
O24   Zn11  S    
O7    Zn10  S    
O12   Zn11  S    
C10   C16   S    
O31   Zn16  S    
C49   H33   S    
C116  O21   A    
C125  O39   A    
C33   Cl8   S    
C75   C83   A    
C96   H20   S    
C45   H29   S    
O15   Zn2   S    
O43   Zn9   S    
C52   C98   S    
C100  C101  S    
C26   C74   A    
C72   C93   A    
C5    C125  S    
C41   C97   S    
C84   C93   A    
C23   C25   S    
C105  O8    A    
C64   H34   S    
C102  C103  S    
C117  C128  S    
C17   C21   T    
C112  O17   A    
C52   O3    A    
C30   C65   A    
C3    C11   T    
C9    C12   S    
C49   C58   A    
O9    Zn12  S    
C19   C106  S    
C36   C94   S    
C58   C67   A    
C104  O7    A    
C33   C68   A    
C120  O42   A    
C72   H13   S    
C44   C53   A    
C81   C113  S    
C119  O41   A    
C27   Cl2   S    
C6    C122  S    
C62   H23   S    
O1    Zn10  S    
C38   C118  A    
C119  O32   A    
C44   H28   S    
O17   Zn4   S    
O11   Zn14  S    
C37   C46   A    
O12   Zn4   S    
C26   C60   A    
C112  O24   A    
C97   C101  T    
C56   C65   A    
O23   Zn14  S    
C82   C112  S    
C39   C48   A    
C20   C108  S    
C35   C91   S    
