data_mof_unit_pretest_370.cif
_audit_creation_date              2012-12-10T18:57:09-0500
_audit_creation_method            fapswitch 2.2
_symmetry_space_group_name_H-M    P1
_symmetry_Int_Tables_number       1
_space_group_crystal_system       triclinic
_cell_length_a                    10.616145
_cell_length_b                    9.883832
_cell_length_c                    10.704269
_cell_angle_alpha                 90.036555
_cell_angle_beta                  90.947527
_cell_angle_gamma                 89.469073
_cell_volume                      1122.97767938

loop_
_atom_site_label
_atom_site_type_symbol
_atom_type_description
_atom_site_fract_x
_atom_site_fract_y
_atom_site_fract_z
_atom_type_partial_charge
C1    C     C_R   0.260397 0.500469 0.497861 0.855378
C2    C     C_R   0.739495 0.499424 0.498191 0.839920
C3    C     C_R   0.598067 0.070693 0.554593 0.230825
C4    C     C_R   0.403323 0.072616 0.444165 0.222690
C5    C     C_R   0.596168 0.926270 0.555084 -0.074337
C6    C     C_R   0.404763 0.928628 0.443186 -0.141652
C7    C     C_R   0.501765 0.499756 0.259926 0.857298
C8    C     C_R   0.504960 0.499810 0.739932 0.874318
C9    C     C_R   0.547240 0.615635 0.064448 0.011157
C10   C     C_R   0.553789 0.615370 0.936888 0.021489
C11   C     C_R   0.519282 0.497401 0.128587 -0.085900
C12   C     C_R   0.525484 0.497338 0.871462 -0.102651
C13   C     C_R   0.517148 0.373685 0.064386 -0.196601
C14   C     C_R   0.519626 0.373761 0.935515 -0.219701
C15   C     C_3   0.501459 0.756387 0.926139 -0.008080
C16   C     C_3   0.492340 0.755773 0.068462 -0.023321
C17   C     C_R   0.066349 0.442013 0.590787 -0.186714
C18   C     C_R   0.937754 0.439110 0.589517 -0.170254
C19   C     C_R   0.871711 0.498203 0.490338 -0.106952
C20   C     C_R   0.127765 0.501546 0.491551 -0.112355
C21   C     C_R   0.931374 0.559005 0.388319 -0.046380
C22   C     C_R   0.063259 0.555916 0.386680 -0.030571
H1    H     H_    0.504155 0.278295 0.112109 0.164466
H2    H     H_    0.506784 0.278780 0.886865 0.170216
H3    H     H_    0.410186 0.762008 0.873455 0.172305
H4    H     H_    0.554750 0.827652 0.119639 0.177353
H5    H     H_    0.118317 0.398605 0.669368 0.146465
H6    H     H_    0.889287 0.395057 0.667817 0.143456
H7    H     H_    0.670703 0.868309 0.600113 0.172614
H8    H     H_    0.329543 0.873943 0.396959 0.160906
N1    N     N_R   0.500000 0.857200 0.500000 -0.110121
N2    N     N_R   0.500000 0.142810 0.500000 -0.128906
O1    O     O_R   0.316770 0.614620 0.499990 -0.634983
O2    O     O_R   0.683230 0.614620 0.500010 -0.629219
O3    O     O_R   0.316800 0.385290 0.500000 -0.577071
O4    O     O_R   0.683200 0.385290 0.500000 -0.597040
O5    O     O_R   0.500000 0.614690 0.316780 -0.609609
O6    O     O_R   0.500000 0.614690 0.683220 -0.602998
O7    O     O_R   0.500020 0.385360 0.316780 -0.620719
O8    O     O_R   0.499980 0.385360 0.683220 -0.645759
Zn1   Zn    Zn3+2 0.500000 0.653120 0.500000 0.954881
Zn2   Zn    Zn3+2 0.500000 0.346880 0.500000 0.958670
N3    N     N_2   0.594477 0.850994 0.881926 -0.281205
H9    H     H_    0.683464 0.839073 0.921035 0.247094
C23   C     C_3   0.551956 0.990308 0.878792 -0.814913
H10   H     H_    0.628743 0.055332 0.845332 0.239461
H11   H     H_    0.526351 0.025145 0.973799 0.237577
H12   H     H_    0.469350 0.001561 0.814438 0.248922
N4    N     N_2   0.362794 0.758453 0.109686 -0.290277
H13   H     H_    0.305871 0.685619 0.069727 0.260392
C24   C     C_3   0.304659 0.891175 0.110778 -0.782458
H14   H     H_    0.214648 0.887006 0.161911 0.258729
H15   H     H_    0.284929 0.925986 0.013699 0.244013
H16   H     H_    0.367532 0.964593 0.158483 0.223721
C25   C     C_2   0.854974 0.625586 0.287313 0.509807
H17   H     H_    0.764495 0.584451 0.259504 0.027768
O9    O     O_2   0.889848 0.729935 0.238234 -0.556637
C26   C     C_2   0.134343 0.597995 0.274635 0.404208
H18   H     H_    0.226828 0.641881 0.285120 0.083383
O10   O     O_2   0.092811 0.577923 0.169264 -0.556468
N5    N     N_2   0.700280 0.142190 0.611075 -0.270352
H19   H     H_    0.675090 0.210660 0.678928 0.246509
C27   C     C_3   0.820057 0.073939 0.632517 -0.825757
H20   H     H_    0.813319 0.001328 0.711174 0.236761
H21   H     H_    0.892991 0.149340 0.657391 0.245952
H22   H     H_    0.850261 0.020664 0.546451 0.261622
N6    N     N_2   0.303688 0.144837 0.383530 -0.259425
H23   H     H_    0.307263 0.140776 0.287541 0.208343
C28   C     C_3   0.179000 0.120324 0.430861 -0.737254
H24   H     H_    0.147750 0.016442 0.406812 0.219087
H25   H     H_    0.111289 0.193767 0.388092 0.252857
H26   H     H_    0.178123 0.134354 0.533884 0.246026

loop_
_geom_bond_atom_site_label_1
_geom_bond_atom_site_label_2
_ccdc_geom_bond_type
C22   C26   S    
C28   H26   S    
C24   H15   S    
C25   H17   S    
C27   H21   S    
C18   H6    S    
C6    N1    A    
C13   C14   A    
C4    N6    S    
C11   C13   A    
C9    C10   A    
O4    Zn2   S    
N5    H19   S    
C8    C12   S    
C24   H16   S    
O1    Zn1   S    
C2    O2    A    
N4    C24   S    
O8    Zn2   S    
C17   C18   A    
C7    O5    A    
C27   H22   S    
C15   N3    S    
O3    Zn2   S    
C25   O9    D    
C23   H10   S    
N6    C28   S    
C7    C11   S    
N3    C23   S    
C9    C11   A    
C4    N2    A    
O2    Zn1   S    
C10   C12   A    
C8    O6    A    
N6    H23   S    
C21   C25   S    
C19   C21   A    
C9    C16   S    
C12   C14   A    
N4    H13   S    
O7    Zn2   S    
C5    H7    S    
C10   C15   S    
C23   H11   S    
N3    H9    S    
O5    Zn1   S    
C3    N2    A    
C28   H24   S    
C15   H3    S    
C3    N5    S    
C1    O1    A    
C15   C16   S    
C17   H5    S    
C17   C20   A    
C2    O4    A    
C16   N4    S    
C13   H1    S    
O6    Zn1   S    
C4    C6    A    
C18   C19   A    
C23   H12   S    
C14   H2    S    
C8    O8    A    
C28   H25   S    
C1    O3    A    
C7    O7    A    
C1    C20   S    
N2    Zn2   S    
N1    Zn1   S    
C3    C5    A    
C2    C19   S    
C21   C22   A    
C26   H18   S    
C26   O10   D    
C6    H8    S    
N5    C27   S    
C24   H14   S    
C20   C22   A    
C27   H20   S    
C5    N1    A    
C16   H4    S    
