data_mof_unit_pretest_77.cif
_audit_creation_date              2012-12-11T17:19:11-0500
_audit_creation_method            fapswitch 2.2
_symmetry_space_group_name_H-M    P1
_symmetry_Int_Tables_number       1
_space_group_crystal_system       triclinic
_cell_length_a                    14.5307
_cell_length_b                    7.261181
_cell_length_c                    13.672713
_cell_angle_alpha                 90.000258
_cell_angle_beta                  100.026194
_cell_angle_gamma                 90.000209
_cell_volume                      1420.57739522

loop_
_atom_site_label
_atom_site_type_symbol
_atom_type_description
_atom_site_fract_x
_atom_site_fract_y
_atom_site_fract_z
_atom_type_partial_charge
O1    O     O_R   0.648180 0.355050 0.151550 -0.516848
O2    O     O_R   0.351820 0.644950 0.848450 -0.516845
O3    O     O_R   0.851820 0.855050 0.348450 -0.516854
O4    O     O_R   0.148180 0.144950 0.651550 -0.516857
O5    O     O_R   0.835240 0.681980 0.154280 -0.525321
O6    O     O_R   0.164760 0.318020 0.845720 -0.525335
O7    O     O_R   0.664760 0.181980 0.345720 -0.525323
O8    O     O_R   0.335240 0.818020 0.654280 -0.525320
H1    H     H_    0.687134 0.137531 0.816720 0.139113
H2    H     H_    0.312865 0.862473 0.183280 0.139106
H3    H     H_    0.812880 0.637571 0.683285 0.139100
H4    H     H_    0.187100 0.362285 0.316713 0.139124
C1    C     C_R   0.865066 0.516949 0.134654 0.702085
C2    C     C_R   0.134935 0.483050 0.865347 0.702068
C3    C     C_R   0.634932 0.016949 0.365343 0.702085
C4    C     C_R   0.365068 0.983051 0.634656 0.702085
O9    O     O_R   0.647870 0.684600 0.139630 -0.535055
O10   O     O_R   0.352130 0.315400 0.860370 -0.535059
O11   O     O_R   0.852130 0.184600 0.360370 -0.535050
O12   O     O_R   0.147870 0.815400 0.639630 -0.535043
O13   O     O_R   0.663110 0.857440 0.333700 -0.538944
O14   O     O_R   0.336890 0.142560 0.666300 -0.538947
O15   O     O_R   0.836890 0.357440 0.166300 -0.538951
O16   O     O_R   0.163110 0.642560 0.833700 -0.538936
C5    C     C_R   0.615114 0.515912 0.113124 0.750118
C6    C     C_R   0.384886 0.484088 0.886876 0.750115
C7    C     C_R   0.884886 0.015912 0.386875 0.750101
C8    C     C_R   0.115114 0.984087 0.613124 0.750124
O17   O     O_3   0.755220 0.522230 0.313690 -0.380588
O18   O     O_3   0.244780 0.477770 0.686310 -0.380588
O19   O     O_3   0.744780 0.022230 0.186310 -0.380591
O20   O     O_3   0.255220 0.977770 0.813690 -0.380593
V1    V     V_3+5 0.749030 0.796100 0.238190 1.506534
V2    V     V_3+5 0.250970 0.203900 0.761810 1.506518
V3    V     V_3+5 0.750970 0.296100 0.261810 1.506541
V4    V     V_3+5 0.249030 0.703900 0.738190 1.506551
C9    C     C_1   0.965996 0.005259 0.466804 -0.103035
C10   C     C_1   0.034005 0.994741 0.533195 -0.103018
C11   C     C_1   0.534004 0.505258 0.033195 -0.103015
C12   C     C_1   0.465996 0.494742 0.966805 -0.103020
H5    H     H_    0.212436 0.798293 0.304880 0.152720
H6    H     H_    0.787565 0.201701 0.695120 0.152729
H7    H     H_    0.287522 0.298058 0.195110 0.152695
H8    H     H_    0.712454 0.701766 0.804886 0.152709
C13   C     C_R   0.569117 0.048871 0.707893 -0.006040
C14   C     C_R   0.430883 0.951131 0.292107 -0.006036
C15   C     C_R   0.930891 0.548892 0.792111 -0.006025
C16   C     C_R   0.069105 0.451060 0.207890 -0.006059
C17   C     C_R   0.659153 0.119341 0.738473 -0.157932
C18   C     C_R   0.340847 0.880661 0.261527 -0.157949
C19   C     C_R   0.840859 0.619377 0.761532 -0.157922
C20   C     C_R   0.159126 0.380513 0.238467 -0.157908
C21   C     C_R   0.716979 0.152845 0.670124 -0.135436
C22   C     C_R   0.283021 0.847151 0.329876 -0.135431
C23   C     C_R   0.783035 0.652894 0.829880 -0.135430
C24   C     C_R   0.216947 0.346976 0.170116 -0.135416
C25   C     C_R   0.686484 0.113686 0.570474 -0.143361
C26   C     C_R   0.313516 0.886310 0.429526 -0.143364
C27   C     C_R   0.813525 0.613728 0.929529 -0.143372
C28   C     C_R   0.186466 0.386195 0.070471 -0.143375
C29   C     C_R   0.593931 0.052822 0.535025 0.062346
C30   C     C_R   0.406068 0.947177 0.464974 0.062347
C31   C     C_R   0.906074 0.552844 0.964976 0.062342
C32   C     C_R   0.093925 0.447129 0.035024 0.062336
C33   C     C_R   0.531583 0.029563 0.604132 0.014054
C34   C     C_R   0.468417 0.970438 0.395868 0.014057
C35   C     C_R   0.968423 0.529579 0.895872 0.014055
C36   C     C_R   0.031578 0.470402 0.104130 0.014065
C37   C     C_R   0.564224 0.013994 0.432433 -0.157919
C38   C     C_R   0.435775 0.986006 0.567567 -0.157916
C39   C     C_R   0.935776 0.513995 0.067566 -0.157903
C40   C     C_R   0.064227 0.486000 0.932435 -0.157922
H9    H     H_    0.736781 0.133928 0.521871 0.109005
H10   H     H_    0.263220 0.866066 0.478129 0.109003
H11   H     H_    0.763230 0.633979 0.978131 0.109013
H12   H     H_    0.236761 0.365934 0.021869 0.109034
C41   C     C_2   0.525192 0.969978 0.787662 0.698032
O21   O     O_2   0.506480 0.805879 0.786375 -0.563030
O22   O     O_R   0.510895 0.079794 0.867380 -0.664201
H13   H     H_    0.477507 0.010676 0.915203 0.293693
C42   C     C_2   0.474807 0.030025 0.212338 0.698023
O23   O     O_2   0.493512 0.194127 0.213620 -0.563029
O24   O     O_R   0.489112 0.920203 0.132624 -0.664197
H14   H     H_    0.522498 0.989325 0.084801 0.293694
C43   C     C_2   0.974811 0.469988 0.712342 0.698035
O25   O     O_2   0.993494 0.305877 0.713616 -0.563042
O26   O     O_R   0.989140 0.579816 0.632641 -0.664188
H15   H     H_    0.022517 0.510677 0.584815 0.293696
C44   C     C_2   0.025195 0.529995 0.287659 0.698041
O27   O     O_2   0.006490 0.694099 0.286361 -0.563036
O28   O     O_R   0.010898 0.420209 0.367389 -0.664205
H16   H     H_    0.977520 0.489352 0.415212 0.293692

loop_
_geom_bond_atom_site_label_1
_geom_bond_atom_site_label_2
_ccdc_geom_bond_type
C26   C30   A    
O26   H15   S    
C23   C27   A    
O10   C6    A    
C42   O23   D    
C43   O25   D    
C1    O15   A    
C18   C22   A    
C15   C43   S    
C14   C34   A    
H6    C21   S    
C34   C37   A    
O13   V1    S    
O3    V1    S    
O2    V4    S    
C33   C38   A    
C30   C38   A    
C35   C40   A    
O8    V4    S    
C2    O16   A    
O4    C8    A    
O5    V1    S    
O19   V1    S    
C8    C10   S    
C44   O28   S    
O11   C7    A    
O5    C1    A    
O7    C3    A    
O8    C4    A    
O1    C5    A    
C27   H11   S    
O9    V1    S    
O14   V2    S    
C15   C35   A    
H4    C20   S    
C25   H9    S    
O4    V2    S    
C41   O22   S    
C3    C37   S    
C31   C35   A    
C30   C34   A    
C43   O26   S    
H1    C17   S    
C11   C12   T    
O1    V3    S    
C21   C25   A    
C15   C19   A    
O12   C8    A    
C41   O21   D    
C28   H12   S    
C24   C28   A    
O20   V2    S    
C9    C10   T    
C29   C33   A    
O6    C2    A    
C14   C42   S    
O24   H14   S    
C13   C17   A    
C4    C38   S    
O2    C6    A    
O16   V4    S    
C16   C36   A    
O10   V2    S    
C31   C39   A    
O15   V3    S    
C16   C44   S    
C13   C33   A    
H2    C18   S    
C32   C36   A    
O28   H16   S    
C26   H10   S    
C22   C26   A    
C29   C37   A    
C14   C18   A    
C4    O14   A    
C2    C40   S    
C42   O24   S    
C25   C29   A    
C1    C39   S    
O17   V3    S    
C27   C31   A    
O18   V4    S    
C28   C32   A    
O9    C5    A    
O3    C7    A    
O11   V3    S    
C5    C11   S    
H8    C23   S    
C6    C12   S    
C3    O13   A    
C7    C9    S    
C36   C39   A    
C17   C21   A    
O7    V3    S    
C19   C23   A    
C32   C40   A    
H5    C22   S    
H3    C19   S    
O22   H13   S    
O12   V4    S    
O6    V2    S    
H7    C24   S    
C16   C20   A    
C13   C41   S    
C44   O27   D    
C20   C24   A    
