data_mof_unit_pretest_304.cif
_audit_creation_date              2012-12-10T19:45:41-0500
_audit_creation_method            fapswitch 2.2
_symmetry_space_group_name_H-M    P1
_symmetry_Int_Tables_number       1
_space_group_crystal_system       triclinic
_cell_length_a                    10.830505
_cell_length_b                    14.640249
_cell_length_c                    14.720843
_cell_angle_alpha                 65.775665
_cell_angle_beta                  103.532634
_cell_angle_gamma                 102.649202
_cell_volume                      2049.52544743

loop_
_atom_site_label
_atom_site_type_symbol
_atom_type_description
_atom_site_fract_x
_atom_site_fract_y
_atom_site_fract_z
_atom_type_partial_charge
C1    C     C_R   0.480566 0.119367 0.312658 0.801085
C2    C     C_R   0.519436 0.880633 0.687342 0.801114
C3    C     C_R   0.870274 0.000567 0.495122 -0.090168
C4    C     C_R   0.129722 0.999443 0.504859 -0.090168
C5    C     C_R   0.907277 0.945663 0.448386 0.005623
C6    C     C_R   0.092718 0.054344 0.551596 0.005618
C7    C     C_R   0.456916 0.187192 0.206420 -0.048993
C8    C     C_R   0.543087 0.812807 0.793580 -0.049002
C9    C     C_R   0.291263 0.233963 0.061363 -0.195979
C10   C     C_R   0.708742 0.766023 0.938628 -0.196001
C11   C     C_R   0.346721 0.160193 0.146247 -0.194002
C12   C     C_R   0.653285 0.839799 0.853752 -0.193999
C13   C     C_R   0.526023 0.286263 0.172284 -0.065463
C14   C     C_R   0.473971 0.713739 0.827711 -0.065413
C15   C     C_R   0.474795 0.360489 0.079641 0.047620
C16   C     C_R   0.525205 0.639502 0.920343 0.047608
C17   C     C_R   0.349237 0.334513 0.032821 0.141706
C18   C     C_R   0.650767 0.665473 0.967162 0.141683
C19   C     C_R   0.536747 0.461852 0.036124 0.056924
C20   C     C_R   0.463253 0.538137 0.963853 0.056929
C21   C     C_R   0.330382 0.510641 0.939666 -0.206155
C22   C     C_R   0.669618 0.489343 0.060312 -0.206133
C23   C     C_R   0.262899 0.999206 0.502796 0.792533
C24   C     C_R   0.737099 0.000797 0.497198 0.792506
C25   C     C_R   0.277533 0.410149 0.964906 -0.223023
C26   C     C_R   0.722470 0.589834 0.035072 -0.223003
C27   C     C_R   0.736718 0.295264 0.651353 -0.100940
C28   C     C_R   0.263279 0.704736 0.348648 -0.100869
C29   C     C_R   0.692533 0.209060 0.628033 0.032044
C30   C     C_R   0.307470 0.790942 0.371963 0.032089
C31   C     C_R   0.514745 0.282774 0.513666 0.036446
C32   C     C_R   0.485246 0.717220 0.486342 0.036391
C33   C     C_R   0.551626 0.372564 0.533960 -0.046067
C34   C     C_R   0.448359 0.627428 0.466052 -0.046079
C35   C     C_R   0.663093 0.376655 0.606605 0.068558
C36   C     C_R   0.336895 0.623340 0.393405 0.068545
C37   C     C_R   0.481114 0.457243 0.485567 0.079565
C38   C     C_R   0.518866 0.542747 0.514451 0.079587
C39   C     C_R   0.625125 0.540337 0.591536 -0.264832
C40   C     C_R   0.374852 0.459651 0.408484 -0.264846
C41   C     C_R   0.695603 0.459941 0.635671 -0.156905
C42   C     C_R   0.304379 0.540050 0.364345 -0.156884
C43   C     C_R   0.357116 0.116730 0.747558 0.031127
C44   C     C_R   0.642819 0.883159 0.252522 0.031133
C45   C     C_R   0.270220 0.062157 0.694240 -0.130472
C46   C     C_R   0.729726 0.937772 0.305793 -0.130404
C47   C     C_R   0.184108 0.111492 0.608684 0.101296
C48   C     C_R   0.815889 0.888480 0.391333 0.101272
C49   C     C_R   0.181664 0.215359 0.579350 -0.155394
C50   C     C_R   0.818378 0.784619 0.420689 -0.155403
C51   C     C_R   0.265459 0.269409 0.633400 -0.146594
C52   C     C_R   0.734586 0.730533 0.366676 -0.146592
C53   C     C_R   0.353645 0.220846 0.716399 -0.168066
C54   C     C_R   0.646345 0.779051 0.283698 -0.168127
C55   C     C_R   0.963107 0.054289 0.545386 -0.242852
C56   C     C_R   0.036890 0.945727 0.454587 -0.242833
Cu1   Cu    Cu3+1 0.466270 0.918260 0.475690 0.952615
Cu2   Cu    Cu3+1 0.533730 0.081740 0.524310 0.952618
H1    H     H_    0.418944 0.264756 0.756194 0.169840
H2    H     H_    0.581041 0.735112 0.243938 0.169823
H3    H     H_    0.198056 0.213581 0.022394 0.164810
H4    H     H_    0.801950 0.786400 0.977598 0.164819
H5    H     H_    0.265067 0.565670 0.900781 0.170002
H6    H     H_    0.734925 0.434308 0.099205 0.169987
H7    H     H_    0.774204 0.462916 0.695556 0.182844
H8    H     H_    0.225778 0.537075 0.304459 0.182846
H9    H     H_    0.569503 0.727846 0.538515 0.132953
H10   H     H_    0.430487 0.272147 0.461495 0.132940
H11   H     H_    0.253314 0.854166 0.338607 0.148635
H12   H     H_    0.746695 0.145841 0.661384 0.148643
H13   H     H_    0.656415 0.599421 0.620832 0.135508
H14   H     H_    0.343558 0.400565 0.379191 0.135504
H15   H     H_    0.270697 0.981759 0.717648 0.139188
H16   H     H_    0.729207 0.018165 0.282368 0.139212
H17   H     H_    0.115170 0.254573 0.514305 0.124522
H18   H     H_    0.884905 0.745435 0.485723 0.124509
H19   H     H_    0.263009 0.349458 0.610256 0.153040
H20   H     H_    0.737077 0.650490 0.389837 0.153046
H21   H     H_    0.934821 0.094964 0.582694 0.165984
H22   H     H_    0.065179 0.905052 0.417280 0.165983
H23   H     H_    0.177200 0.391864 0.936949 0.154811
H24   H     H_    0.822802 0.608116 0.063030 0.154814
H25   H     H_    0.705482 0.915595 0.828406 0.171873
H26   H     H_    0.294522 0.084397 0.171597 0.171865
N1    N     N_R   0.584450 0.204570 0.560790 -0.191200
N2    N     N_R   0.415550 0.795430 0.439210 -0.191221
O1    O     O_R   0.455540 0.022090 0.338120 -0.580391
O2    O     O_R   0.544460 0.977910 0.661880 -0.580398
O3    O     O_R   0.512510 0.160150 0.379180 -0.575104
O4    O     O_R   0.487490 0.839850 0.620820 -0.575105
O5    O     O_R   0.291160 0.930970 0.479480 -0.588430
O6    O     O_R   0.708840 0.069030 0.520520 -0.588437
O7    O     O_R   0.348130 0.069020 0.520540 -0.584221
O8    O     O_R   0.651870 0.930980 0.479460 -0.584229
C57   C     C_2   0.862252 0.298716 0.718356 0.810106
O9    O     O_2   0.889915 0.223017 0.791722 -0.582698
O10   O     O_R   0.951504 0.386646 0.694973 -0.790156
H27   H     H_    0.034084 0.378835 0.745389 0.329785
C58   C     C_2   0.137747 0.701289 0.281642 0.810141
O11   O     O_2   0.110094 0.776988 0.208272 -0.582655
O12   O     O_R   0.048487 0.613364 0.305025 -0.790179
H28   H     H_    0.965908 0.621178 0.254609 0.329790
C59   C     C_2   0.451229 0.065012 0.835130 0.840966
O13   O     O_2   0.536280 0.114211 0.874067 -0.588778
O14   O     O_R   0.443139 0.959628 0.873437 -0.759729
H29   H     H_    0.512806 0.933396 0.933043 0.362268
C60   C     C_2   0.548616 0.934819 0.164991 0.840991
O15   O     O_2   0.463508 0.885585 0.126136 -0.588805
O16   O     O_R   0.556673 0.040188 0.126642 -0.759658
H30   H     H_    0.486936 0.066376 0.067081 0.362280
C61   C     C_R   0.362280 0.686845 0.757374 0.106061
C62   C     C_R   0.367503 0.615790 0.717170 -0.112878
C63   C     C_R   0.263745 0.592689 0.649457 -0.121229
C64   C     C_R   0.155219 0.641454 0.619946 -0.083925
C65   C     C_R   0.149849 0.712995 0.658570 -0.134675
C66   C     C_R   0.252909 0.735902 0.726834 -0.146943
H31   H     H_    0.451809 0.578553 0.738307 0.125066
H32   H     H_    0.267810 0.537443 0.619314 0.135734
H33   H     H_    0.075373 0.623894 0.567036 0.147423
H34   H     H_    0.065833 0.750776 0.635638 0.130573
H35   H     H_    0.247742 0.791631 0.756043 0.127041
C67   C     C_R   0.637673 0.313187 0.242627 0.106076
C68   C     C_R   0.747058 0.264149 0.273213 -0.146877
C69   C     C_R   0.850075 0.287093 0.341477 -0.134626
C70   C     C_R   0.844652 0.358655 0.380047 -0.083964
C71   C     C_R   0.736113 0.407402 0.350488 -0.121301
C72   C     C_R   0.632395 0.384261 0.282783 -0.112888
H36   H     H_    0.752267 0.208408 0.244042 0.126967
H37   H     H_    0.934100 0.249324 0.364450 0.130557
H38   H     H_    0.924463 0.376246 0.432954 0.147500
H39   H     H_    0.732007 0.462664 0.380590 0.135722
H40   H     H_    0.548078 0.421484 0.261610 0.125082

loop_
_geom_bond_atom_site_label_1
_geom_bond_atom_site_label_2
_ccdc_geom_bond_type
C27   C57   S    
C1    O1    A    
O12   H28   S    
C31   N1    A    
C27   C29   A    
C5    C56   A    
C36   C42   A    
C57   O9    D    
C18   C26   A    
C6    C55   A    
C64   C65   A    
C53   H1    S    
C68   C69   A    
C39   C41   A    
C54   H2    S    
C15   C19   A    
C71   C72   A    
C9    H3    S    
Cu2   O7    S    
C29   H12   S    
C37   C40   A    
C24   O8    A    
C62   H31   S    
C65   C66   A    
Cu1   N2    S    
C45   H15   S    
C67   C72   A    
C2    O4    A    
C72   H40   S    
C3    C55   A    
C70   H38   S    
C43   C53   A    
C61   C62   A    
C44   C46   A    
C49   C51   A    
C50   C52   A    
C60   O15   D    
C49   H17   S    
Cu1   O1    S    
C2    O2    A    
C61   C66   A    
C14   C16   A    
C30   N2    A    
C40   H14   S    
C29   N1    A    
C64   H33   S    
C8    C12   A    
C40   C42   A    
C26   H24   S    
C1    C7    S    
C4    C56   A    
C25   H23   S    
C60   O16   S    
C3    C24   S    
C31   H10   S    
C52   H20   S    
C24   O6    A    
C62   C63   A    
C1    O3    A    
C52   C54   A    
O10   H27   S    
Cu1   Cu2   S    
C45   C47   A    
C14   C61   S    
C5    C48   S    
C46   C48   A    
C6    C47   S    
C19   C22   A    
C4    C6    A    
Cu1   O4    S    
C4    C23   S    
C41   H7    S    
C27   C35   A    
C33   C37   A    
C23   O7    A    
C12   H25   S    
C51   C53   A    
C32   C34   A    
C7    C11   A    
C51   H19   S    
C37   C38   A    
C50   H18   S    
C55   H21   S    
C58   O11   D    
C16   C20   A    
C32   N2    A    
C31   C33   A    
C59   O14   S    
C9    C11   A    
C10   C12   A    
C32   H9    S    
C28   C58   S    
C9    C17   A    
C58   O12   S    
Cu1   O8    S    
C13   C15   A    
C70   C71   A    
C23   O5    A    
C10   H4    S    
Cu2   N1    S    
C46   H16   S    
C30   H11   S    
C63   C64   A    
C44   C60   S    
C15   C17   A    
C21   C25   A    
C8    C14   A    
Cu1   O5    S    
C34   C38   A    
C2    C8    S    
C3    C5    A    
Cu2   O2    S    
C57   O10   S    
C11   H26   S    
C47   C49   A    
O14   H29   S    
C56   H22   S    
C17   C25   A    
C19   C20   A    
C28   C30   A    
C43   C45   A    
O16   H30   S    
C13   C67   S    
C68   H36   S    
C38   C39   A    
C71   H39   S    
C10   C18   A    
C48   C50   A    
C33   C35   A    
C69   H37   S    
C34   C36   A    
C35   C41   A    
Cu2   O3    S    
C43   C59   S    
C21   H5    S    
C22   H6    S    
C63   H32   S    
C44   C54   A    
C7    C13   A    
C20   C21   A    
C28   C36   A    
C16   C18   A    
C65   H34   S    
C22   C26   A    
C59   O13   D    
C42   H8    S    
C39   H13   S    
C66   H35   S    
C67   C68   A    
Cu2   O6    S    
C69   C70   A    
