data_mof_unit_pretest_49.cif
_audit_creation_date              2012-10-26T19:15:03-0400
_audit_creation_method            fapswitch 2.2
_symmetry_space_group_name_H-M    P1
_symmetry_Int_Tables_number       1
_space_group_crystal_system       triclinic
_cell_length_a                    10.88103
_cell_length_b                    10.85444
_cell_length_c                    9.552223
_cell_angle_alpha                 89.937896
_cell_angle_beta                  91.329281
_cell_angle_gamma                 90.686326
_cell_volume                      1127.80415847

loop_
_atom_site_label
_atom_site_type_symbol
_atom_type_description
_atom_site_fract_x
_atom_site_fract_y
_atom_site_fract_z
_atom_type_partial_charge
C1    C     C_R   0.500430 0.262540 0.500011 0.568202
C2    C     C_R   0.507469 0.936654 0.625907 0.006026
C3    C     C_3   0.426213 0.928168 0.750127 0.279838
C4    C     C_R   0.262672 0.495593 0.498568 0.631167
C5    C     C_3   0.423140 0.068720 0.749915 -0.085126
C6    C     C_R   0.535708 0.602877 0.074313 0.161118
C7    C     C_R   0.448782 0.405200 0.072526 0.496484
C8    C     C_R   0.450248 0.404744 0.924016 0.045190
C9    C     C_R   0.531477 0.604267 0.926670 0.072400
C10   C     C_3   0.649934 0.671176 0.917755 -0.154480
C11   C     C_3   0.659736 0.663726 0.075761 0.708507
C12   C     C_R   0.942488 0.503204 0.622351 0.010452
C13   C     C_R   0.499524 0.737632 0.499994 0.616232
C14   C     C_R   0.737610 0.492237 0.501154 0.570190
C15   C     C_R   0.068173 0.505363 0.619014 -0.119065
C16   C     C_R   0.130177 0.480734 0.497676 0.027626
C17   C     C_R   0.063110 0.430397 0.383221 0.418844
C18   C     C_R   0.932985 0.422644 0.386217 0.004823
C19   C     C_R   0.870937 0.473311 0.503054 -0.054961
C20   C     C_2   0.295469 0.119580 0.726045 0.335215
C21   C     C_2   0.864840 0.357766 0.270729 0.385897
C22   C     C_2   0.883057 0.721568 0.701194 0.339502
C23   C     C_3   0.943534 0.600224 0.735439 0.324783
C24   C     C_2   0.154076 0.565302 0.854761 0.404823
C25   C     C_3   0.083621 0.604969 0.725101 0.376496
C26   C     C_R   0.504603 0.063395 0.625157 -0.020770
C27   C     C_R   0.506418 0.129575 0.499825 0.053870
C28   C     C_R   0.517818 0.064805 0.373641 -0.107537
C29   C     C_R   0.515251 0.936463 0.373673 -0.089283
C30   C     C_R   0.505476 0.871016 0.500122 0.069867
Cu1   Cu    Cu3+1 0.499990 0.499980 0.640670 1.047257
Cu2   Cu    Cu3+1 0.500010 0.500020 0.359330 1.181354
F1    F     F_    0.123953 0.387591 0.270843 -0.526617
F2    F     F_    0.394831 0.309195 0.138760 -0.591956
F3    F     F_    0.753230 0.587782 0.122549 -0.532521
F4    F     F_    0.662386 0.777995 0.139075 -0.618903
F5    F     F_    0.907888 0.550370 0.861868 -0.630359
F6    F     F_    0.128951 0.712712 0.666254 -0.534867
F7    F     F_    0.314378 0.872137 0.716633 -0.513782
H1    H     H_    0.472035 0.889195 0.844822 0.116046
H2    H     H_    0.884884 0.793885 0.779530 0.147670
H3    H     H_    0.138141 0.474763 0.899810 0.138964
H4    H     H_    0.471899 0.109979 0.842370 0.068257
H5    H     H_    0.410871 0.327336 0.867410 0.118992
H6    H     H_    0.714606 0.614185 0.861799 0.212233
H7    H     H_    0.639908 0.766137 0.876495 0.093041
H8    H     H_    0.523044 0.112623 0.274353 0.184921
H9    H     H_    0.515519 0.889272 0.274287 0.207593
H10   H     H_    0.233792 0.122958 0.813517 0.148113
H11   H     H_    0.775220 0.316658 0.288581 0.086429
N1    N     N_R   0.500790 0.500930 0.147930 -0.241026
N2    N     N_R   0.500790 0.500890 0.852020 -0.277464
O1    O     O_R   0.500000 0.319640 0.618810 -0.532644
O2    O     O_2   0.908321 0.348008 0.154613 -0.342402
O3    O     O_2   0.833651 0.740808 0.587359 -0.487649
O4    O     O_2   0.229498 0.634702 0.910385 -0.415963
O5    O     O_R   0.500010 0.319680 0.381230 -0.465666
O6    O     O_R   0.319650 0.499970 0.618810 -0.501870
O7    O     O_R   0.319660 0.500010 0.381230 -0.414351
O8    O     O_R   0.499990 0.680320 0.618770 -0.478538
O9    O     O_R   0.500000 0.680360 0.381190 -0.493790
O10   O     O_R   0.680340 0.499990 0.618770 -0.497264
O11   O     O_R   0.680350 0.500030 0.381190 -0.471564
O12   O     O_2   0.259611 0.155809 0.611314 -0.458005

loop_
_geom_bond_atom_site_label_1
_geom_bond_atom_site_label_2
_ccdc_geom_bond_type
Cu1   O8    S    
C10   H7    S    
Cu1   O6    S    
C28   H8    S    
C20   O12   D    
C22   O3    D    
C1    O5    A    
C25   F6    S    
C24   O4    D    
C18   C21   S    
C24   H3    S    
C9    C10   S    
C8    N2    A    
Cu1   Cu2   S    
C12   C23   S    
C12   C15   A    
Cu1   N2    S    
C2    C30   A    
C1    C27   S    
C6    C9    A    
C11   F3    S    
C2    C3    S    
C5    H4    S    
C7    N1    A    
C7    C8    A    
Cu2   N1    S    
C13   O8    A    
Cu1   O1    S    
Cu1   O10   S    
C26   C27   A    
C29   C30   A    
C9    N2    A    
C17   F1    S    
Cu2   O5    S    
C10   H6    S    
C20   H10   S    
C14   O11   A    
C4    O7    A    
C28   C29   A    
C3    H1    S    
C17   C18   A    
C21   H11   S    
C23   C25   S    
C21   O2    D    
C6    N1    A    
C7    F2    S    
C15   C25   S    
C22   H2    S    
C10   C11   S    
C4    C16   S    
C29   H9    S    
C3    F7    S    
C15   C16   A    
C14   O10   A    
C8    H5    S    
C13   C30   S    
C6    C11   S    
C13   O9    A    
C24   C25   S    
C12   C19   A    
C2    C26   A    
C18   C19   A    
C4    O6    A    
C27   C28   A    
C5    C20   S    
C1    O1    A    
C22   C23   S    
C11   F4    S    
Cu2   O7    S    
C23   F5    S    
C14   C19   S    
Cu2   O9    S    
C5    C26   S    
Cu2   O11   S    
C16   C17   A    
C3    C5    S    
