data_mof_unit_pretest_1033.cif
_audit_creation_date              2012-12-11T14:40:50-0500
_audit_creation_method            fapswitch 2.2
_symmetry_space_group_name_H-M    P1
_symmetry_Int_Tables_number       1
_space_group_crystal_system       triclinic
_cell_length_a                    24.653813
_cell_length_b                    17.461812
_cell_length_c                    15.608182
_cell_angle_alpha                 89.990696
_cell_angle_beta                  129.685693
_cell_angle_gamma                 90.0578
_cell_volume                      5170.91454873

loop_
_atom_site_label
_atom_site_type_symbol
_atom_type_description
_atom_site_fract_x
_atom_site_fract_y
_atom_site_fract_z
_atom_type_partial_charge
Br1   Br    Br    0.243904 0.387104 0.112830 -0.497978
Br2   Br    Br    0.243995 0.612498 0.112408 -0.488148
Br3   Br    Br    0.743868 0.887646 0.112408 -0.498874
Br4   Br    Br    0.743916 0.112661 0.112984 -0.499216
C1    C     C_R   0.343448 0.368617 0.220844 0.336198
C2    C     C_R   0.683989 0.616453 0.501105 0.064819
C3    C     C_R   0.182827 0.880029 0.501202 0.109169
C4    C     C_R   0.184038 0.116109 0.501029 0.072365
C5    C     C_R   0.352977 0.322685 0.501464 -0.015963
C6    C     C_R   0.353268 0.677426 0.501207 -0.016279
C7    C     C_R   0.853569 0.822124 0.501534 -0.016926
C8    C     C_R   0.852598 0.176767 0.501620 -0.015581
C9    C     C_3   0.357047 0.216838 0.613259 -0.562562
C10   C     C_3   0.356631 0.782700 0.612676 -0.566078
C11   C     C_3   0.857352 0.716577 0.613550 -0.561466
C12   C     C_R   0.343514 0.631281 0.220865 0.339088
C13   C     C_3   0.856644 0.282415 0.613539 -0.561805
C14   C     C_3   0.809929 0.658273 0.612777 0.363679
C15   C     C_3   0.809490 0.340988 0.612724 0.363808
C16   C     C_3   0.309834 0.158212 0.612462 0.364184
C17   C     C_3   0.308976 0.840488 0.611720 0.369030
C18   C     C_3   0.253833 0.307742 0.497310 -0.493330
C19   C     C_3   0.254219 0.690251 0.497450 -0.491151
C20   C     C_3   0.754324 0.807622 0.497252 -0.494197
C21   C     C_3   0.753219 0.191594 0.496955 -0.493901
C22   C     C_3   0.277941 0.207718 0.405089 -0.390654
C23   C     C_R   0.843346 0.868796 0.220581 0.337188
C24   C     C_3   0.277123 0.791407 0.404602 -0.388388
C25   C     C_3   0.778410 0.707120 0.405453 -0.390297
C26   C     C_3   0.777816 0.291700 0.405405 -0.391304
C27   C     C_3   0.311397 0.264641 0.504146 0.310447
C28   C     C_3   0.311260 0.734567 0.503826 0.312126
C29   C     C_3   0.811881 0.764234 0.504309 0.310285
C30   C     C_3   0.811010 0.234712 0.504257 0.309901
C31   C     C_3   0.731781 0.666998 0.502785 0.096910
C32   C     C_3   0.731338 0.332416 0.502662 0.097044
C33   C     C_3   0.231638 0.166930 0.502651 0.095796
C34   C     C_R   0.843486 0.131289 0.220866 0.335512
C35   C     C_3   0.230677 0.830279 0.502551 0.088820
C36   C     C_3   0.707957 0.750805 0.499077 0.332417
C37   C     C_3   0.707093 0.248709 0.498793 0.332329
C38   C     C_3   0.207709 0.250639 0.499305 0.331947
C39   C     C_3   0.207988 0.746256 0.500518 0.329132
C40   C     C_R   0.665039 0.385151 0.794136 0.534680
C41   C     C_R   0.665082 0.614886 0.794221 0.534659
C42   C     C_R   0.168210 0.895286 0.802294 0.497731
C43   C     C_R   0.165083 0.114898 0.794201 0.517531
C44   C     C_3   0.728875 0.651659 0.401887 -0.457407
C45   C     C_R   0.645010 0.362810 0.856028 -0.029718
C46   C     C_3   0.728573 0.347503 0.401855 -0.457110
C47   C     C_3   0.228588 0.151971 0.401539 -0.458622
C48   C     C_3   0.226758 0.845450 0.400598 -0.463829
C49   C     C_2   0.690040 0.330021 0.968195 -0.156051
C50   C     C_2   0.690004 0.669998 0.968246 -0.155948
C51   C     C_2   0.193651 0.842953 0.978252 -0.160664
C52   C     C_2   0.190091 0.169875 0.968346 -0.158416
C53   C     C_2   0.759539 0.343178 0.039670 -0.165376
C54   C     C_2   0.759419 0.656638 0.039920 -0.165802
C55   C     C_2   0.264033 0.846947 0.045246 -0.096714
C56   C     C_R   0.645016 0.637242 0.856048 -0.029831
C57   C     C_2   0.259510 0.156498 0.039952 -0.165275
C58   C     C_2   0.351121 0.746885 0.131340 -0.116744
C59   C     C_2   0.349911 0.253513 0.129219 -0.139363
C60   C     C_2   0.849945 0.246315 0.129082 -0.139951
C61   C     C_2   0.849734 0.753717 0.128896 -0.139994
C62   C     C_2   0.305222 0.788811 0.130385 -0.133003
C63   C     C_2   0.304500 0.211195 0.129223 -0.094136
C64   C     C_2   0.804411 0.288469 0.128846 -0.093183
C65   C     C_2   0.804363 0.711433 0.129031 -0.093186
C66   C     C_R   0.615425 0.398155 0.408244 -0.047825
C67   C     C_R   0.148494 0.873731 0.864546 0.067649
C68   C     C_R   0.615532 0.601691 0.408310 -0.047832
C69   C     C_R   0.115001 0.896765 0.408211 -0.052240
C70   C     C_R   0.115554 0.101472 0.408277 -0.045637
C71   C     C_R   0.409051 0.361921 0.593992 -0.217762
C72   C     C_R   0.409254 0.638250 0.593867 -0.217329
C73   C     C_R   0.909603 0.861482 0.594048 -0.214483
C74   C     C_R   0.908820 0.137768 0.594109 -0.217748
C75   C     C_R   0.689692 0.399249 0.592578 -0.094764
C76   C     C_R   0.689769 0.600687 0.592623 -0.094764
C77   C     C_R   0.188761 0.895796 0.592819 -0.141802
C78   C     C_R   0.145049 0.137206 0.856083 -0.017399
C79   C     C_R   0.189815 0.100432 0.592572 -0.101715
C80   C     C_R   0.328794 0.365912 0.408715 0.440265
C81   C     C_R   0.329018 0.634126 0.408503 0.438956
C82   C     C_R   0.829180 0.865488 0.408745 0.439399
C83   C     C_R   0.828569 0.133702 0.408807 0.440296
C84   C     C_R   0.576243 0.387883 0.798506 -0.206426
C85   C     C_R   0.576228 0.612143 0.798473 -0.206074
C86   C     C_R   0.077742 0.892376 0.801988 -0.241910
C87   C     C_R   0.076245 0.112131 0.798494 -0.204431
C88   C     C_R   0.440068 0.361106 0.235386 -0.154787
C89   C     C_R   0.683816 0.383278 0.501019 0.064911
C90   C     C_R   0.440269 0.638899 0.235676 -0.156579
C91   C     C_R   0.939958 0.861221 0.235130 -0.155195
C92   C     C_R   0.940106 0.138873 0.235368 -0.155075
C93   C     C_R   0.377260 0.324969 0.192868 0.034381
C94   C     C_R   0.377511 0.674888 0.193160 0.030068
C95   C     C_R   0.877103 0.825176 0.192498 0.034252
C96   C     C_R   0.877312 0.174943 0.192837 0.034443
H1    H     H_    0.400780 0.188226 0.622307 0.201613
H2    H     H_    0.279756 0.649984 0.569044 0.145541
H3    H     H_    0.779413 0.847644 0.569080 0.144364
H4    H     H_    0.778062 0.151572 0.568673 0.144638
H5    H     H_    0.715835 0.761304 0.576794 0.095236
H6    H     H_    0.714876 0.238359 0.576457 0.095282
H7    H     H_    0.215758 0.260908 0.577207 0.096572
H8    H     H_    0.217063 0.735832 0.579241 0.097249
H9    H     H_    0.747664 0.736271 0.323763 0.230733
H10   H     H_    0.746899 0.262387 0.323747 0.230596
H11   H     H_    0.247053 0.237034 0.323494 0.230690
H12   H     H_    0.400059 0.812020 0.621457 0.202148
H13   H     H_    0.246898 0.762181 0.323006 0.230840
H14   H     H_    0.320236 0.175122 0.414455 0.155084
H15   H     H_    0.318998 0.825313 0.414256 0.154368
H16   H     H_    0.820697 0.674296 0.415080 0.155542
H17   H     H_    0.820253 0.324252 0.414980 0.155528
H18   H     H_    0.743533 0.591460 0.401990 0.175153
H19   H     H_    0.743588 0.407598 0.402098 0.175188
H20   H     H_    0.243325 0.091862 0.401379 0.175196
H21   H     H_    0.239997 0.906033 0.399010 0.175182
H22   H     H_    0.674914 0.659403 0.321527 0.167137
H23   H     H_    0.901048 0.687697 0.622771 0.202398
H24   H     H_    0.674583 0.339917 0.321449 0.166924
H25   H     H_    0.174574 0.159722 0.321292 0.166874
H26   H     H_    0.172822 0.836045 0.320822 0.167837
H27   H     H_    0.220727 0.343539 0.421121 0.238029
H28   H     H_    0.221081 0.654632 0.421019 0.237501
H29   H     H_    0.721352 0.843450 0.421092 0.237918
H30   H     H_    0.720145 0.155826 0.420657 0.238052
H31   H     H_    0.289441 0.771767 0.178672 0.161926
H32   H     H_    0.290610 0.227234 0.180366 0.159328
H33   H     H_    0.790442 0.272394 0.179888 0.159521
H34   H     H_    0.900516 0.311059 0.622889 0.201873
H35   H     H_    0.790473 0.727545 0.180152 0.159705
H36   H     H_    0.783945 0.384510 0.021649 0.178793
H37   H     H_    0.783742 0.615199 0.021959 0.178687
H38   H     H_    0.291250 0.882435 0.026709 0.207833
H39   H     H_    0.283800 0.115109 0.021867 0.179199
H40   H     H_    0.366735 0.763866 0.082813 0.149810
H41   H     H_    0.363472 0.237979 0.077513 0.140310
H42   H     H_    0.863608 0.261919 0.077516 0.140423
H43   H     H_    0.863289 0.738115 0.077202 0.140268
H44   H     H_    0.666502 0.289351 0.988819 0.181223
H45   H     H_    0.313105 0.172525 0.685059 0.080130
H46   H     H_    0.666537 0.710814 0.988747 0.181582
H47   H     H_    0.168585 0.807539 0.001555 0.161142
H48   H     H_    0.166655 0.210628 0.988974 0.181331
H49   H     H_    0.592931 0.396718 0.322009 0.078021
H50   H     H_    0.593064 0.603011 0.322085 0.078216
H51   H     H_    0.092782 0.895821 0.322106 0.073883
H52   H     H_    0.093027 0.102819 0.322024 0.076134
H53   H     H_    0.436337 0.350271 0.680589 0.132152
H54   H     H_    0.436468 0.649943 0.680441 0.132314
H55   H     H_    0.937389 0.849530 0.680764 0.133270
H56   H     H_    0.313120 0.826252 0.685106 0.081716
H57   H     H_    0.936077 0.149344 0.680734 0.131861
H58   H     H_    0.737484 0.402208 0.677808 0.185100
H59   H     H_    0.737542 0.597776 0.677870 0.184748
H60   H     H_    0.235529 0.892934 0.678647 0.140906
H61   H     H_    0.237587 0.097464 0.677823 0.179768
H62   H     H_    0.548255 0.388948 0.830598 0.129443
H63   H     H_    0.548204 0.611049 0.830507 0.129590
H64   H     H_    0.048812 0.893219 0.832484 0.129247
H65   H     H_    0.048229 0.111028 0.830539 0.127539
H66   H     H_    0.477243 0.344522 0.223868 0.130835
H67   H     H_    0.813104 0.672905 0.685203 0.079926
H68   H     H_    0.477644 0.655704 0.224631 0.131433
H69   H     H_    0.977068 0.844652 0.223476 0.129475
H70   H     H_    0.977296 0.155477 0.223840 0.130666
H71   H     H_    0.381506 0.254234 0.687292 0.152382
H72   H     H_    0.381489 0.745451 0.686909 0.153043
H73   H     H_    0.881855 0.754125 0.687454 0.152443
H74   H     H_    0.880912 0.244934 0.687396 0.152276
H75   H     H_    0.844422 0.572943 0.577429 0.329574
H76   H     H_    0.844471 0.426012 0.577584 0.329458
H77   H     H_    0.344414 0.073289 0.576626 0.329548
H78   H     H_    0.812544 0.326531 0.685085 0.079866
H79   H     H_    0.341822 0.925962 0.573604 0.328983
H80   H     H_    0.750451 0.328491 0.864271 0.310488
H81   H     H_    0.750751 0.671395 0.864904 0.310554
H82   H     H_    0.235146 0.950326 0.802088 0.326073
H83   H     H_    0.250722 0.171466 0.864850 0.314712
H84   H     H_    0.628151 0.761660 0.339184 0.330999
H85   H     H_    0.627294 0.237922 0.338867 0.330798
H86   H     H_    0.127667 0.261544 0.339544 0.330721
H87   H     H_    0.127024 0.734425 0.341323 0.330779
H88   H     H_    0.250552 0.423965 0.288920 0.348218
H89   H     H_    0.278879 0.347740 0.569154 0.145014
H90   H     H_    0.250729 0.575858 0.288718 0.348019
H91   H     H_    0.750572 0.923084 0.288848 0.348149
H92   H     H_    0.750525 0.075339 0.288899 0.348273
N1    N     N_R   0.389430 0.421450 0.294590 -0.082913
N2    N     N_R   0.581780 0.577610 0.443390 -0.053278
N3    N     N_R   0.081780 0.922390 0.443390 -0.047602
N4    N     N_R   0.081780 0.077610 0.443390 -0.049910
N5    N     N_R   0.419850 0.423100 0.556610 -0.056777
N6    N     N_R   0.419850 0.576900 0.556610 -0.056731
N7    N     N_R   0.919850 0.923100 0.556610 -0.055464
N8    N     N_R   0.919850 0.076900 0.556610 -0.056091
N9    N     N_R   0.627410 0.423100 0.556610 -0.045446
N10   N     N_R   0.627410 0.576900 0.556610 -0.045437
N11   N     N_R   0.127410 0.923100 0.556610 -0.052773
N12   N     N_R   0.389430 0.578550 0.294590 -0.083499
N13   N     N_R   0.127410 0.076900 0.556610 -0.045286
N14   N     N_R   0.374220 0.422390 0.443390 -0.104846
N15   N     N_R   0.374220 0.577610 0.443390 -0.104789
N16   N     N_R   0.874220 0.922390 0.443390 -0.104302
N17   N     N_R   0.874220 0.077610 0.443390 -0.104505
N18   N     N_R   0.555000 0.424040 0.705410 -0.065537
N19   N     N_R   0.555000 0.575960 0.705410 -0.065574
N20   N     N_R   0.055000 0.924040 0.705410 -0.056833
N21   N     N_R   0.055000 0.075960 0.705410 -0.061606
N22   N     N_R   0.446630 0.421450 0.294590 -0.062831
N23   N     N_R   0.889430 0.921450 0.294590 -0.082297
N24   N     N_R   0.446630 0.578550 0.294590 -0.062487
N25   N     N_R   0.946630 0.921450 0.294590 -0.061928
N26   N     N_R   0.946630 0.078550 0.294590 -0.062209
N27   N     N_R   0.889430 0.078550 0.294590 -0.082201
N28   N     N_R   0.612200 0.424040 0.705410 -0.079447
N29   N     N_R   0.612200 0.575960 0.705410 -0.079462
N30   N     N_R   0.112200 0.924040 0.705410 -0.107892
N31   N     N_R   0.112200 0.075960 0.705410 -0.083143
N32   N     N_R   0.581780 0.422390 0.443390 -0.053246
Ni1   Ni    Ni4+2 0.382890 0.500000 0.370170 0.246600
Ni2   Ni    Ni4+2 0.882890 0.000000 0.370170 0.249791
Ni3   Ni    Ni4+2 0.618740 0.500000 0.629830 0.285337
Ni4   Ni    Ni4+2 0.118740 0.000000 0.629830 0.243897
Ni5   Ni    Ni4+2 0.514090 0.500000 0.370170 0.206415
Ni6   Ni    Ni4+2 0.014090 0.000000 0.370170 0.208711
Ni7   Ni    Ni4+2 0.487550 0.500000 0.629830 0.188862
Ni8   Ni    Ni4+2 0.987550 0.000000 0.629830 0.190859
O1    O     O_3   0.834752 0.582724 0.629122 -0.684470
O2    O     O_3   0.634953 0.235763 0.409375 -0.730339
O3    O     O_3   0.135557 0.263703 0.410242 -0.729779
O4    O     O_3   0.135766 0.732194 0.412705 -0.728688
O5    O     O_3   0.259671 0.369830 0.313815 -0.764661
O6    O     O_3   0.259901 0.630030 0.313548 -0.765467
O7    O     O_3   0.760095 0.868918 0.313650 -0.765394
O8    O     O_3   0.759466 0.129465 0.313882 -0.764418
O9    O     O_3   0.834696 0.416430 0.629195 -0.684670
O10   O     O_3   0.334784 0.082757 0.628431 -0.685425
O11   O     O_3   0.332822 0.916387 0.626173 -0.684781
O12   O     O_3   0.729552 0.376383 0.820731 -0.795209
O13   O     O_3   0.729661 0.623627 0.820982 -0.795043
O14   O     O_3   0.236217 0.906885 0.843952 -0.792273
O15   O     O_3   0.229624 0.123730 0.820852 -0.807337
O16   O     O_3   0.635868 0.763949 0.409734 -0.730496

loop_
_geom_bond_atom_site_label_1
_geom_bond_atom_site_label_2
_ccdc_geom_bond_type
C40   C45   A    
C11   C14   S    
C45   C49   S    
C41   C56   A    
C52   C57   D    
C51   C55   D    
C4    C79   A    
C83   N17   A    
N29   Ni3   S    
C12   N12   A    
C63   H32   S    
H90   O6    S    
C12   C94   A    
C19   H28   S    
C75   H58   S    
C43   O15   S    
N5    N14   A    
C14   O1    S    
C19   C39   S    
N1    N22   A    
C3    C69   A    
C50   C56   S    
C56   C85   A    
N20   N30   A    
C16   O10   S    
C23   C95   A    
N19   Ni7   S    
C26   H10   S    
C6    C28   S    
Br1   C1    S    
C60   C64   D    
C10   C17   S    
C25   H9    S    
C64   H33   S    
C9    H1    S    
C75   C89   A    
C15   C32   S    
N23   N25   A    
C55   C62   S    
C44   H22   S    
N20   Ni8   S    
C91   C95   A    
H92   O8    S    
C19   H2    S    
N3    N11   A    
C37   O2    S    
C90   C94   A    
C7    C82   A    
N2    N10   A    
C25   C29   S    
C33   C38   S    
N18   N28   A    
C2    C31   S    
N13   Ni4   S    
C6    C81   A    
C81   O6    S    
C38   O3    S    
C43   C78   A    
N4    N13   A    
C71   H53   S    
N26   Ni6   S    
H88   O5    S    
C7    C73   A    
N16   Ni2   S    
C58   C94   S    
C6    C72   A    
C20   H29   S    
N15   Ni1   S    
C76   N10   A    
C80   O5    S    
C75   N9    A    
C8    C74   A    
C66   N32   A    
N18   Ni7   S    
C53   H36   S    
C88   N22   A    
C5    C71   A    
Br2   C12   S    
C38   H7    S    
H87   O4    S    
C9    C16   S    
C21   C30   S    
C17   O11   S    
H80   O12   S    
H77   O10   S    
C79   H61   S    
C22   C27   S    
C65   H35   S    
C77   H60   S    
C84   N18   A    
C69   H51   S    
C23   N23   A    
H84   O16   S    
N2    Ni5   S    
C70   H52   S    
C32   C37   S    
C66   H49   S    
C74   N8    A    
C59   C93   S    
C31   C44   S    
C32   C89   S    
N11   Ni4   S    
C36   O16   S    
C9    C27   S    
C88   C93   A    
N24   Ni5   S    
C5    C27   S    
C70   N4    A    
Br3   C23   S    
N5    Ni7   S    
H91   O7    S    
C59   C63   D    
C37   H6    S    
C26   C30   S    
C25   C44   S    
C46   H19   S    
C47   H25   S    
C24   C28   S    
C58   C62   D    
C46   H24   S    
C61   C95   S    
C10   H72   S    
C18   C27   S    
C90   H68   S    
C11   H73   S    
N31   Ni4   S    
C57   H39   S    
C76   H59   S    
C44   H18   S    
C55   H38   S    
H75   O1    S    
C92   N26   A    
C78   C87   A    
N28   Ni3   S    
C86   H64   S    
C85   N19   A    
N7    N16   A    
C52   H48   S    
C2    C68   A    
N7    Ni8   S    
C22   H14   S    
C81   N15   A    
C82   N16   A    
C24   H15   S    
C88   H66   S    
N25   Ni6   S    
C73   N7    A    
C48   H21   S    
C57   C63   S    
C74   H57   S    
C2    C76   A    
C18   H27   S    
C17   C35   S    
N30   Ni4   S    
C66   C89   A    
N14   Ni1   S    
C4    C70   A    
C47   H20   S    
C59   H41   S    
C21   H4    S    
H83   O15   S    
C18   H89   S    
C21   H30   S    
C91   H69   S    
C15   H78   S    
C42   O14   S    
C42   C67   A    
N21   Ni8   S    
C11   H23   S    
C51   H47   S    
C54   H37   S    
C34   C96   A    
C3    C77   A    
C25   H16   S    
N4    Ni6   S    
H86   O3    S    
C68   H50   S    
C69   N3    A    
C50   C54   D    
C77   N11   A    
N17   Ni2   S    
C53   C64   S    
C41   O13   S    
C32   C46   S    
C13   H74   S    
C40   O12   S    
N23   Ni2   S    
C1    N1    A    
C62   H31   S    
C14   C31   S    
N9    Ni3   S    
C43   N31   A    
C84   H62   S    
C20   C36   S    
C49   C53   D    
C83   O8    S    
C8    C83   A    
N6    N15   A    
N6    Ni7   S    
C34   N27   A    
C87   H65   S    
N8    N17   A    
C1    C93   A    
C42   N30   A    
C71   N5    A    
C35   C39   S    
C14   H67   S    
C54   C65   S    
C52   C78   S    
N10   Ni3   S    
C24   C48   S    
C26   H17   S    
C4    C33   S    
C45   C84   A    
N12   N24   A    
C90   N24   A    
C10   H12   S    
C82   O7    S    
C50   H46   S    
C39   O4    S    
C49   H44   S    
C41   N29   A    
C19   C28   S    
C20   H3    S    
H82   O14   S    
C31   C36   S    
C60   C96   S    
N1    Ni1   S    
C87   N21   A    
C72   N6    A    
C22   C47   S    
C73   H55   S    
C86   N20   A    
C16   C33   S    
N21   N31   A    
C48   H26   S    
N26   N27   A    
C18   C38   S    
C67   C86   A    
C60   H42   S    
C61   C65   D    
C92   C96   A    
C72   H54   S    
C33   C47   S    
C91   N25   A    
C17   H56   S    
C11   C29   S    
H85   O2    S    
H81   O13   S    
C39   H8    S    
N27   Ni2   S    
C26   C46   S    
H79   O11   S    
C40   N28   A    
C24   H13   S    
C15   O9    S    
C5    C80   A    
C13   C15   S    
C80   N14   A    
C9    H71   S    
C68   N2    A    
C10   C28   S    
N3    Ni6   S    
C79   N13   A    
C21   C37   S    
C13   C30   S    
C7    C29   S    
C13   H34   S    
C3    C35   S    
C16   H45   S    
C36   H5    S    
Br4   C34   S    
C92   H70   S    
N8    Ni8   S    
N9    N32   A    
C58   H40   S    
N12   Ni1   S    
N32   Ni5   S    
N22   Ni5   S    
C8    C30   S    
C22   H11   S    
C85   H63   S    
C61   H43   S    
C51   C67   S    
C35   C48   S    
C20   C29   S    
H76   O9    S    
N19   N29   A    
