data_mof_unit_pretest_1161.cif
_audit_creation_date              2012-12-10T19:54:19-0500
_audit_creation_method            fapswitch 2.2
_symmetry_space_group_name_H-M    P1
_symmetry_Int_Tables_number       1
_space_group_crystal_system       triclinic
_cell_length_a                    15.669791
_cell_length_b                    14.892857
_cell_length_c                    14.343879
_cell_angle_alpha                 90.617345
_cell_angle_beta                  90.134911
_cell_angle_gamma                 91.529672
_cell_volume                      3346.00290767

loop_
_atom_site_label
_atom_site_type_symbol
_atom_type_description
_atom_site_fract_x
_atom_site_fract_y
_atom_site_fract_z
_atom_type_partial_charge
C1    C     C_R   0.503204 0.327669 0.499393 0.870424
C2    C     C_R   0.500762 0.672125 0.500170 0.864335
C3    C     C_R   0.507220 0.181402 0.577691 -0.210641
C4    C     C_R   0.468467 0.817594 0.433194 -0.230744
C5    C     C_R   0.517652 0.231996 0.497098 -0.041410
C6    C     C_R   0.511638 0.768097 0.499251 -0.021941
C7    C     C_R   0.545898 0.191545 0.414444 -0.247514
C8    C     C_R   0.571863 0.809112 0.558465 -0.250105
C9    C     C_R   0.558931 0.099592 0.409984 0.010406
C10   C     C_R   0.588257 0.901207 0.555177 0.013428
C11   C     C_R   0.545047 0.048797 0.491396 0.053779
C12   C     C_R   0.543059 0.951371 0.488980 0.051364
C13   C     C_R   0.440683 0.447734 0.104372 -0.313638
C14   C     C_R   0.572029 0.524540 0.897110 -0.310151
C15   C     C_R   0.440799 0.448833 0.202705 0.106841
C16   C     C_R   0.571614 0.525855 0.798723 0.107215
C17   C     C_R   0.558212 0.552354 0.204102 0.110369
C18   C     C_R   0.427905 0.473723 0.796939 0.110422
C19   C     C_R   0.557150 0.554666 0.105831 -0.314572
C20   C     C_R   0.426076 0.476902 0.895457 -0.311851
C21   C     C_R   0.498712 0.501371 0.053647 0.130814
C22   C     C_R   0.498749 0.501289 0.947770 0.127388
C23   C     C_R   0.338106 0.500686 0.499766 0.923993
C24   C     C_R   0.661906 0.499511 0.499969 0.919169
C25   C     C_3   0.972398 0.453761 0.568483 -0.171730
C26   C     C_3   0.027864 0.547828 0.420488 -0.180519
C27   C     C_3   0.028549 0.416723 0.489230 -0.166079
C28   C     C_3   0.971500 0.584920 0.499705 -0.165914
C29   C     C_1   0.249170 0.503242 0.498588 -0.157127
C30   C     C_1   0.750871 0.497595 0.499089 -0.151889
C31   C     C_3   0.028257 0.540780 0.573606 -0.171747
C32   C     C_3   0.971590 0.460898 0.415379 -0.180123
C33   C     C_3   0.082801 0.503630 0.494507 0.221247
C34   C     C_3   0.917248 0.497996 0.494757 0.220192
C35   C     C_1   0.173775 0.504544 0.496409 -0.098813
C36   C     C_1   0.826277 0.496783 0.496881 -0.096498
C37   C     C_R   0.519986 0.090259 0.574612 -0.157036
C38   C     C_R   0.483666 0.909085 0.428545 -0.162748
H1    H     H_    0.054353 0.348092 0.484855 0.119749
H2    H     H_    0.945698 0.653560 0.503897 0.122131
H3    H     H_    0.507056 0.051304 0.636623 0.144311
H4    H     H_    0.446673 0.947546 0.379969 0.142959
H5    H     H_    0.558768 0.231545 0.353272 0.155760
H6    H     H_    0.607954 0.768797 0.605243 0.144757
H7    H     H_    0.395211 0.403627 0.068477 0.139601
H8    H     H_    0.630923 0.541948 0.933358 0.140383
N1    N     N_R   0.500000 0.499980 0.252470 -0.126027
N2    N     N_R   0.500000 0.500020 0.747530 -0.127736
O1    O     O_R   0.500010 0.369070 0.579480 -0.631338
O2    O     O_R   0.499990 0.630930 0.420520 -0.623909
O3    O     O_R   0.500010 0.369060 0.420520 -0.622845
O4    O     O_R   0.499990 0.630940 0.579480 -0.623945
O5    O     O_R   0.376780 0.500000 0.579460 -0.606904
O6    O     O_R   0.623220 0.500000 0.420540 -0.614681
O7    O     O_R   0.376780 0.499990 0.420510 -0.615993
O8    O     O_R   0.623220 0.500010 0.579490 -0.610443
Zn1   Zn    Zn3+2 0.500000 0.500010 0.606140 0.948565
Zn2   Zn    Zn3+2 0.500000 0.499990 0.393860 0.948107
C39   C     C_R   0.624931 0.606949 0.252057 0.156461
C40   C     C_R   0.707700 0.573997 0.260859 -0.134479
C41   C     C_R   0.772243 0.626890 0.303223 -0.143269
C42   C     C_R   0.754751 0.713148 0.336014 -0.142266
C43   C     C_R   0.673392 0.747519 0.324061 -0.150397
C44   C     C_R   0.609248 0.695510 0.279970 -0.106250
H9    H     H_    0.721800 0.507058 0.236108 0.119975
H10   H     H_    0.835615 0.600767 0.311226 0.134258
H11   H     H_    0.804393 0.753610 0.369895 0.123529
H12   H     H_    0.660007 0.814425 0.348949 0.153646
H13   H     H_    0.547020 0.723594 0.269065 0.132630
C45   C     C_R   0.350598 0.435753 0.751592 0.171568
C46   C     C_R   0.273501 0.481622 0.756460 -0.169757
C47   C     C_R   0.198124 0.441226 0.721943 -0.131538
C48   C     C_R   0.199259 0.355325 0.681818 -0.110129
C49   C     C_R   0.275477 0.308797 0.678274 -0.174286
C50   C     C_R   0.350490 0.348258 0.714777 -0.099042
H14   H     H_    0.271729 0.547974 0.787938 0.119963
H15   H     H_    0.138795 0.476304 0.726746 0.122957
H16   H     H_    0.140930 0.324482 0.654552 0.121051
H17   H     H_    0.276112 0.241535 0.649004 0.127759
H18   H     H_    0.407952 0.310165 0.716944 0.117905
H19   H     H_    0.602171 0.599277 0.071142 0.139188
H20   H     H_    0.367105 0.458788 0.930473 0.138951
H21   H     H_    0.948548 0.413870 0.628341 0.116480
H22   H     H_    0.052866 0.586360 0.360145 0.124757
H23   H     H_    0.946070 0.428144 0.350865 0.125342
H24   H     H_    0.052744 0.574822 0.637831 0.117736
H25   H     H_    0.487933 0.211493 0.642738 0.144097
H26   H     H_    0.422463 0.785560 0.386184 0.141583
C51   C     C_R   0.582973 0.058619 0.319055 0.114941
C52   C     C_R   0.655239 0.005195 0.311007 -0.150803
C53   C     C_R   0.677032 0.967346 0.224933 -0.148041
C54   C     C_R   0.626802 0.982097 0.146286 -0.107455
C55   C     C_R   0.554833 0.035051 0.153485 -0.132251
C56   C     C_R   0.533019 0.073301 0.239316 -0.181055
H27   H     H_    0.694981 0.992882 0.370812 0.108281
H28   H     H_    0.732829 0.926335 0.219287 0.128466
H29   H     H_    0.643638 0.952504 0.079800 0.116362
H30   H     H_    0.515804 0.046338 0.092575 0.125374
H31   H     H_    0.476485 0.113272 0.243880 0.117677
C57   C     C_R   0.649925 0.942485 0.623470 0.102526
C58   C     C_R   0.714448 0.003609 0.594998 -0.135986
C59   C     C_R   0.771718 0.041665 0.660038 -0.137623
C60   C     C_R   0.765460 0.018961 0.754031 -0.114044
C61   C     C_R   0.701831 0.958208 0.783203 -0.137706
C62   C     C_R   0.644321 0.920151 0.718450 -0.187460
H32   H     H_    0.720888 0.021880 0.522758 0.113955
H33   H     H_    0.821091 0.088728 0.637481 0.122296
H34   H     H_    0.809892 0.048471 0.804253 0.119040
H35   H     H_    0.696900 0.940734 0.856084 0.123541
H36   H     H_    0.594908 0.873858 0.742615 0.126119
C63   C     C_R   0.374792 0.393478 0.249170 0.168774
C64   C     C_R   0.390541 0.303920 0.270754 -0.123480
C65   C     C_R   0.326729 0.249861 0.311256 -0.157259
C66   C     C_R   0.245702 0.284042 0.326862 -0.125069
C67   C     C_R   0.228139 0.371788 0.300644 -0.148214
C68   C     C_R   0.292233 0.426202 0.261039 -0.132651
H37   H     H_    0.452099 0.276288 0.255698 0.112341
H38   H     H_    0.339854 0.181290 0.329666 0.128117
H39   H     H_    0.196214 0.242183 0.358005 0.120428
H40   H     H_    0.164947 0.397683 0.311138 0.134229
H41   H     H_    0.277955 0.494033 0.240750 0.118706
C69   C     C_R   0.651288 0.558352 0.755839 0.184857
C70   C     C_R   0.722828 0.503495 0.754654 -0.155367
C71   C     C_R   0.802350 0.538636 0.727243 -0.135812
C72   C     C_R   0.810984 0.628457 0.700830 -0.104350
C73   C     C_R   0.740391 0.683774 0.703800 -0.176565
C74   C     C_R   0.660984 0.649121 0.732683 -0.138817
H42   H     H_    0.717206 0.434237 0.776628 0.119464
H43   H     H_    0.857396 0.496493 0.727498 0.122018
H44   H     H_    0.872612 0.655489 0.679532 0.123077
H45   H     H_    0.747766 0.753919 0.685797 0.143897
H46   H     H_    0.607622 0.693226 0.740340 0.116000

loop_
_geom_bond_atom_site_label_1
_geom_bond_atom_site_label_2
_ccdc_geom_bond_type
C18   C45   S    
C62   H36   S    
C26   C32   S    
C73   C74   A    
C20   H20   S    
C17   N1    A    
C48   C49   A    
C63   C64   A    
C15   N1    A    
C16   N2    A    
C66   C67   A    
C70   H42   S    
N2    Zn1   S    
C14   H8    S    
C27   C33   S    
C57   C62   A    
C55   C56   A    
C42   H11   S    
C1    C5    S    
C23   C29   S    
C19   C21   A    
C38   H4    S    
C46   H14   S    
C28   H2    S    
C24   O6    A    
C67   C68   A    
C69   C74   A    
O1    Zn1   S    
O8    Zn1   S    
C51   C56   A    
C11   C37   A    
C16   C69   S    
C74   H46   S    
C61   C62   A    
C2    O2    A    
C47   H15   S    
C17   C19   A    
C53   H28   S    
C72   H44   S    
C27   H1    S    
C48   H16   S    
C31   C33   S    
C45   C46   A    
C7    H5    S    
C50   H18   S    
C18   C20   A    
C66   H39   S    
C25   C34   S    
C28   C34   S    
C39   C40   A    
C31   H24   S    
C21   C22   S    
C12   C38   A    
C2    C6    S    
C41   H10   S    
C64   C65   A    
C54   H29   S    
C23   O5    A    
C10   C12   A    
C68   H41   S    
C3    H25   S    
C59   C60   A    
O2    Zn2   S    
C58   C59   A    
C15   C63   S    
C70   C71   A    
C4    C6    A    
C49   C50   A    
C9    C51   S    
C53   C54   A    
C5    C7    A    
O5    Zn1   S    
C6    C8    A    
C43   C44   A    
C40   C41   A    
C32   C34   S    
C42   C43   A    
C1    O3    A    
C26   C33   S    
C39   C44   A    
C13   C21   A    
C59   H33   S    
O3    Zn2   S    
C44   H13   S    
C10   C57   S    
C9    C11   A    
C60   H34   S    
C2    O4    A    
C17   C39   S    
C4    C38   A    
C40   H9    S    
C49   H17   S    
C13   C15   A    
C72   C73   A    
C14   C16   A    
C24   O8    A    
C51   C52   A    
C45   C50   A    
C65   C66   A    
O6    Zn2   S    
C58   H32   S    
C7    C9    A    
C43   H12   S    
C26   H22   S    
C27   C32   S    
C25   C31   S    
C28   C31   S    
C8    H6    S    
C20   C22   A    
C47   C48   A    
C3    C5    A    
C18   N2    A    
C11   C12   S    
C23   O7    A    
C4    H26   S    
C25   C27   S    
C29   C35   T    
C26   C28   S    
C30   C36   T    
C63   C68   A    
C14   C22   A    
C73   H45   S    
C46   C47   A    
N1    Zn2   S    
C13   H7    S    
C52   C53   A    
C64   H37   S    
C56   H31   S    
C32   H23   S    
C54   C55   A    
C33   C35   S    
C71   H43   S    
C34   C36   S    
C37   H3    S    
C41   C42   A    
C24   C30   S    
O4    Zn1   S    
C65   H38   S    
C3    C37   A    
C8    C10   A    
C67   H40   S    
O7    Zn2   S    
C60   C61   A    
C25   H21   S    
C61   H35   S    
C57   C58   A    
C69   C70   A    
C19   H19   S    
C1    O1    A    
C55   H30   S    
C52   H27   S    
C71   C72   A    
