data_mof_unit_pretest_1721.cif
_audit_creation_date              2012-10-26T20:49:14-0400
_audit_creation_method            fapswitch 2.2
_symmetry_space_group_name_H-M    P1
_symmetry_Int_Tables_number       1
_space_group_crystal_system       triclinic
_cell_length_a                    19.410661
_cell_length_b                    18.121378
_cell_length_c                    19.335078
_cell_angle_alpha                 90.013182
_cell_angle_beta                  90.09294
_cell_angle_gamma                 90.02983
_cell_volume                      6801.06351961

loop_
_atom_site_label
_atom_site_type_symbol
_atom_type_description
_atom_site_fract_x
_atom_site_fract_y
_atom_site_fract_z
_atom_type_partial_charge
C1    C     C_R   0.367428 0.499973 0.500473 0.531997
C2    C     C_R   0.964620 0.503391 0.437010 -0.131467
C3    C     C_R   0.071739 0.499783 0.500704 0.017512
C4    C     C_R   0.928275 0.500505 0.499453 0.016434
C5    C     C_R   0.445067 0.721202 0.473455 0.041048
C6    C     C_R   0.556649 0.278640 0.477650 0.050459
C7    C     C_R   0.554984 0.721251 0.526480 0.040101
C8    C     C_R   0.443309 0.278619 0.522305 0.050031
C9    C     C_R   0.443739 0.798656 0.473698 -0.109034
C10   C     C_R   0.557971 0.201159 0.478076 -0.105064
C11   C     C_R   0.556367 0.798706 0.526197 -0.109555
C12   C     C_R   0.632566 0.500044 0.499479 0.531776
C13   C     C_R   0.441927 0.201136 0.521837 -0.105466
C14   C     C_R   0.500058 0.838484 0.499951 0.062179
C15   C     C_R   0.499940 0.161295 0.499954 0.060540
C16   C     C_R   0.496470 0.960748 0.562940 0.097997
C17   C     C_R   0.501832 0.038913 0.436889 0.098166
C18   C     C_R   0.503589 0.960725 0.436973 0.097796
C19   C     C_R   0.498106 0.038941 0.563022 0.098214
C20   C     C_R   0.499941 0.078512 0.499955 -0.016145
C21   C     C_R   0.500055 0.921206 0.499956 -0.013413
C22   C     C_R   0.499840 0.499994 0.367279 0.543088
C23   C     C_R   0.852714 0.500482 0.498772 0.033496
C24   C     C_R   0.500218 0.500006 0.632733 0.543130
C25   C     C_R   0.544176 0.549478 0.254584 -0.009481
C26   C     C_R   0.544856 0.452425 0.746688 -0.005434
C27   C     C_R   0.456419 0.549773 0.745571 -0.009583
C28   C     C_R   0.455158 0.452645 0.253261 -0.005565
C29   C     C_R   0.541998 0.551102 0.182247 -0.105359
C30   C     C_R   0.542901 0.453237 0.819071 -0.102954
C31   C     C_R   0.458746 0.551383 0.817904 -0.105318
C32   C     C_R   0.457237 0.453448 0.180885 -0.102979
C33   C     C_R   0.499665 0.502745 0.145552 0.008521
C34   C     C_R   0.147281 0.499643 0.501370 0.033928
C35   C     C_R   0.500840 0.502778 0.854500 0.008565
C36   C     C_R   0.499909 0.500362 0.291013 0.036668
C37   C     C_R   0.500312 0.500393 0.709020 0.036481
C38   C     C_R   0.500505 0.503065 0.930128 0.333861
C39   C     C_R   0.500101 0.503048 0.069923 0.333876
C40   C     C_R   0.744509 0.433732 0.503369 -0.128199
C41   C     C_R   0.255528 0.566462 0.503652 -0.128449
C42   C     C_R   0.255535 0.432984 0.497984 -0.119554
C43   C     C_R   0.744372 0.567022 0.494896 -0.119011
C44   C     C_R   0.816441 0.432868 0.503240 0.017393
C45   C     C_R   0.708274 0.500240 0.499208 -0.031133
C46   C     C_R   0.183593 0.567314 0.504172 0.017339
C47   C     C_R   0.183167 0.431656 0.498120 0.012109
C48   C     C_R   0.816744 0.568402 0.494728 0.012843
C49   C     C_3   0.596951 0.598403 0.290110 -0.276672
C50   C     C_3   0.570822 0.677583 0.296710 -0.388046
C51   C     C_3   0.597422 0.402209 0.712452 -0.266123
C52   C     C_3   0.657715 0.446250 0.682973 -0.420020
C53   C     C_3   0.403900 0.599060 0.710205 -0.276564
C54   C     C_3   0.430599 0.678044 0.703544 -0.387497
C55   C     C_3   0.402291 0.402706 0.287429 -0.266154
C56   C     C_R   0.291709 0.499831 0.500733 -0.031103
C57   C     C_3   0.342223 0.447059 0.316897 -0.420432
C58   C     C_3   0.852429 0.358779 0.507628 -0.277247
C59   C     C_3   0.849422 0.328035 0.581039 -0.435470
C60   C     C_3   0.147553 0.641416 0.507204 -0.277367
C61   C     C_3   0.146645 0.678039 0.436175 -0.432706
C62   C     C_3   0.142732 0.359444 0.494713 -0.272680
C63   C     C_3   0.185526 0.288672 0.491011 -0.449597
C64   C     C_3   0.857070 0.640657 0.490782 -0.272243
C65   C     C_3   0.814196 0.711457 0.488690 -0.449412
C66   C     C_R   0.963685 0.497160 0.562519 -0.122155
C67   C     C_R   0.036344 0.503184 0.437647 -0.123138
C68   C     C_R   0.035412 0.496687 0.563144 -0.132301
Cu1   Cu    Cu3+1 0.500000 0.573360 0.500000 0.908887
Cu2   Cu    Cu3+1 0.500000 0.426640 0.500000 0.924874
H1    H     H_    0.575466 0.588536 0.154250 0.134499
H2    H     H_    0.064326 0.505485 0.389272 0.109777
H3    H     H_    0.062686 0.494098 0.611999 0.111919
H4    H     H_    0.937362 0.505819 0.388137 0.111381
H5    H     H_    0.401888 0.691351 0.451860 0.121305
H6    H     H_    0.601305 0.308251 0.459246 0.123342
H7    H     H_    0.598167 0.691438 0.548045 0.121224
H8    H     H_    0.398660 0.308213 0.540699 0.121982
H9    H     H_    0.399341 0.827363 0.453007 0.122178
H10   H     H_    0.603754 0.172454 0.460833 0.121669
H11   H     H_    0.600795 0.827449 0.546850 0.121935
H12   H     H_    0.576262 0.416786 0.848350 0.132954
H13   H     H_    0.396115 0.172419 0.539052 0.120820
H14   H     H_    0.521731 0.679363 0.326026 0.192027
H15   H     H_    0.609618 0.711495 0.324578 0.153759
H16   H     H_    0.562323 0.701932 0.244680 0.166846
H17   H     H_    0.611692 0.576910 0.341766 0.165857
H18   H     H_    0.645481 0.598695 0.259620 0.134419
H19   H     H_    0.694254 0.408249 0.656890 0.138113
H20   H     H_    0.639751 0.487614 0.644834 0.164163
H21   H     H_    0.685382 0.475305 0.725309 0.152312
H22   H     H_    0.618978 0.362426 0.750539 0.142456
H23   H     H_    0.425566 0.589018 0.845983 0.134513
H24   H     H_    0.573406 0.367442 0.671946 0.189387
H25   H     H_    0.479633 0.679455 0.674114 0.191841
H26   H     H_    0.391991 0.712233 0.675777 0.155285
H27   H     H_    0.439402 0.702349 0.755556 0.166797
H28   H     H_    0.388827 0.577640 0.658605 0.166270
H29   H     H_    0.355466 0.599728 0.740844 0.134329
H30   H     H_    0.305521 0.409256 0.343048 0.140683
H31   H     H_    0.360390 0.488411 0.354988 0.163363
H32   H     H_    0.314677 0.476168 0.274544 0.152062
H33   H     H_    0.380553 0.363032 0.249308 0.142877
H34   H     H_    0.423705 0.417187 0.151539 0.133066
H35   H     H_    0.426102 0.367841 0.327951 0.189189
H36   H     H_    0.874724 0.366685 0.617730 0.153971
H37   H     H_    0.795143 0.319273 0.597196 0.149469
H38   H     H_    0.876742 0.274262 0.583079 0.145496
H39   H     H_    0.827209 0.319267 0.471593 0.140331
H40   H     H_    0.907148 0.362114 0.491442 0.157914
H41   H     H_    0.200025 0.687657 0.417594 0.151624
H42   H     H_    0.118867 0.642661 0.398390 0.156275
H43   H     H_    0.119815 0.732013 0.439577 0.143372
H44   H     H_    0.093825 0.636448 0.526117 0.156935
H45   H     H_    0.716807 0.381915 0.506791 0.124847
H46   H     H_    0.174654 0.678009 0.544558 0.138777
H47   H     H_    0.217909 0.288388 0.443690 0.151199
H48   H     H_    0.218377 0.283000 0.537804 0.151135
H49   H     H_    0.150460 0.240292 0.488692 0.148867
H50   H     H_    0.109257 0.355623 0.541154 0.153363
H51   H     H_    0.108790 0.360784 0.448387 0.151632
H52   H     H_    0.781089 0.712542 0.441783 0.151831
H53   H     H_    0.782066 0.716310 0.535965 0.150106
H54   H     H_    0.849206 0.759890 0.486656 0.148470
H55   H     H_    0.891754 0.644184 0.536466 0.153464
H56   H     H_    0.283257 0.618357 0.505731 0.124969
H57   H     H_    0.889771 0.639677 0.443682 0.150906
H58   H     H_    0.284497 0.382196 0.495470 0.130419
H59   H     H_    0.715342 0.617728 0.491608 0.131185
H60   H     H_    0.935722 0.495010 0.610906 0.110934
I1    I     I_    0.485258 0.901348 0.658110 -0.353825
I2    I     I_    0.498601 0.098051 0.340991 -0.324967
I3    I     I_    0.514930 0.901304 0.341811 -0.354380
I4    I     I_    0.501234 0.098140 0.658919 -0.325318
N1    N     N_R   0.499713 0.438520 0.034384 -0.218274
N2    N     N_R   0.500400 0.567649 0.965637 -0.220341
N3    N     N_R   0.500413 0.438526 0.965622 -0.218273
N4    N     N_R   0.500701 0.567639 0.034458 -0.220392
N5    N     N_R   0.500000 0.683620 0.500000 -0.223076
N6    N     N_R   0.500000 0.316380 0.500000 -0.222946
O1    O     O_R   0.400190 0.561980 0.499990 -0.514625
O2    O     O_R   0.599810 0.438020 0.500010 -0.511067
O3    O     O_R   0.599810 0.561980 0.500010 -0.516319
O4    O     O_R   0.400190 0.438020 0.499990 -0.512540
O5    O     O_R   0.499990 0.561970 0.400150 -0.500819
O6    O     O_R   0.500010 0.438030 0.599850 -0.496803
O7    O     O_R   0.500010 0.561970 0.599850 -0.500559
O8    O     O_R   0.499990 0.438030 0.400150 -0.496781

loop_
_geom_bond_atom_site_label_1
_geom_bond_atom_site_label_2
_ccdc_geom_bond_type
Cu1   N5    S    
C66   C68   A    
Cu2   N6    S    
C16   C21   A    
C29   C33   A    
C18   C21   A    
Cu1   O5    S    
C49   H17   S    
C60   H44   S    
C3    C68   A    
C47   C62   S    
C50   H14   S    
C39   N1    A    
C53   C54   S    
C53   H29   S    
C19   I4    S    
C7    C11   A    
C57   H32   S    
C8    C13   A    
C30   C35   A    
C55   H35   S    
C14   C21   S    
C1    C56   S    
C10   C15   A    
C63   H47   S    
C11   C14   A    
C48   C64   S    
C40   H45   S    
Cu1   O1    S    
C58   H39   S    
C55   H33   S    
C17   C20   A    
C18   I3    S    
C67   H2    S    
C9    H9    S    
C65   H54   S    
C49   C50   S    
C16   I1    S    
C50   H15   S    
C42   C56   A    
C52   H20   S    
C19   C20   A    
C44   C58   S    
C41   C46   A    
C32   H34   S    
C54   H27   S    
C34   C46   A    
C38   N2    A    
C43   C48   A    
C54   H26   S    
C2    H4    S    
C42   H58   S    
C7    H7    S    
C39   N4    A    
C17   I2    S    
C8    H8    S    
C49   H18   S    
C52   H19   S    
C15   C20   S    
C28   C55   S    
C5    N5    A    
C11   H11   S    
C25   C29   A    
C40   C45   A    
Cu2   O2    S    
C59   H36   S    
C27   C31   A    
C51   C52   S    
C43   H59   S    
C35   C38   S    
N2    N4    A    
C2    C67   A    
C4    C23   S    
C10   H10   S    
C25   C36   A    
C3    C34   S    
C68   H3    S    
C31   H23   S    
C57   H30   S    
C59   H37   S    
C23   C44   A    
C60   C61   S    
C5    H5    S    
C2    C4    A    
C9    C14   A    
C41   C56   A    
C5    C9    A    
C62   C63   S    
C51   H22   S    
C63   H49   S    
C22   O5    A    
C28   C32   A    
C64   H57   S    
C17   C18   A    
C33   C39   S    
C65   H52   S    
C43   C45   A    
C54   H25   S    
Cu2   O6    S    
C7    N5    A    
C22   O8    A    
C26   C30   A    
C55   C57   S    
C61   H43   S    
Cu1   O7    S    
C31   C35   A    
C60   H46   S    
Cu2   O8    S    
C61   H41   S    
C57   H31   S    
C24   C37   S    
N1    N3    A    
C30   H12   S    
C46   C60   S    
C58   H40   S    
C62   H50   S    
C41   H56   S    
C3    C67   A    
C12   C45   S    
C24   O7    A    
C6    C10   A    
C27   C53   S    
C26   C37   A    
C6    H6    S    
C53   H28   S    
Cu1   O3    S    
C22   C36   S    
C13   H13   S    
Cu2   O4    S    
C59   H38   S    
C12   O3    A    
C8    N6    A    
C64   C65   S    
C13   C15   A    
C58   C59   S    
C1    O4    A    
C24   O6    A    
C26   C51   S    
C32   C33   A    
C4    C66   A    
C27   C37   A    
C16   C19   A    
C38   N3    A    
C12   O2    A    
C42   C47   A    
C65   H53   S    
C6    N6    A    
Cu1   Cu2   S    
C25   C49   S    
C1    O1    A    
C50   H16   S    
C51   H24   S    
C23   C48   A    
C40   C44   A    
C28   C36   A    
C64   H55   S    
C52   H21   S    
C34   C47   A    
C29   H1    S    
C61   H42   S    
C62   H51   S    
C63   H48   S    
C66   H60   S    
