data_mof_unit_pretest_1748.cif
_audit_creation_date              2013-03-05T15:50:49-0500
_audit_creation_method            fapswitch 2.2
_symmetry_space_group_name_H-M    P1
_symmetry_Int_Tables_number       1
_space_group_crystal_system       triclinic
_cell_length_a                    44.185549
_cell_length_b                    30.302183
_cell_length_c                    31.982403
_cell_angle_alpha                 90.038077
_cell_angle_beta                  136.673089
_cell_angle_gamma                 90.011378
_cell_volume                      29382.6129559

loop_
_atom_site_label
_atom_site_type_symbol
_atom_site_description
_atom_site_fract_x
_atom_site_fract_y
_atom_site_fract_z
_atom_type_partial_charge
O1    O     O_R   0.564870 0.962420 0.064890 -0.566784
O2    O     O_R   0.435130 0.962420 0.935110 -0.565541
O3    O     O_R   0.064870 0.462420 0.064890 -0.569399
O4    O     O_R   0.935130 0.462420 0.935110 -0.568856
O5    O     O_R   0.564810 0.037500 0.064830 -0.535697
O6    O     O_R   0.435190 0.037500 0.935170 -0.539035
O7    O     O_R   0.064810 0.537500 0.064830 -0.538630
O8    O     O_R   0.935190 0.537500 0.935170 -0.538464
C1    C     C_R   0.585413 0.999939 0.085039 0.899707
C2    C     C_R   0.414594 0.999893 0.914984 0.899436
C3    C     C_R   0.085360 0.499943 0.085152 0.906320
C4    C     C_R   0.914616 0.499898 0.914808 0.904790
O9    O     O_R   0.500000 0.962430 0.060460 -0.585570
O10   O     O_R   0.500000 0.962430 0.939540 -0.580879
O11   O     O_R   0.000000 0.462430 0.060460 -0.588330
O12   O     O_R   0.000000 0.462430 0.939540 -0.587915
O13   O     O_R   0.499940 0.037510 0.060410 -0.540410
O14   O     O_R   0.500060 0.037510 0.939590 -0.540544
O15   O     O_R   0.999940 0.537510 0.060410 -0.539362
O16   O     O_R   0.000060 0.537510 0.939590 -0.539880
C5    C     C_R   0.499978 0.999987 0.079995 0.852715
C6    C     C_R   0.500048 0.999945 0.920025 0.847827
C7    C     C_R   0.999948 0.499960 0.079976 0.857225
C8    C     C_R   0.000031 0.499933 0.920003 0.857462
Cu1   Cu    Cu3+1 0.500000 0.955510 0.000000 1.102590
Cu2   Cu    Cu3+1 0.000000 0.455510 0.000000 1.091976
Cu3   Cu    Cu3+1 0.500000 0.044420 0.000000 1.177347
Cu4   Cu    Cu3+1 1.000000 0.544420 0.000000 1.177292
C9    C     C_3   0.538786 0.985815 0.303003 0.009374
C10   C     C_3   0.497004 0.958266 0.732671 0.009140
C11   C     C_3   0.036295 0.480307 0.300757 0.010130
C12   C     C_3   0.963455 0.480635 0.698957 0.009878
C13   C     C_3   0.532005 0.026851 0.268303 0.219121
C14   C     C_3   0.462993 0.982384 0.726255 0.211604
C15   C     C_3   0.034479 0.521832 0.270976 0.217327
C16   C     C_3   0.965822 0.522125 0.729360 0.217963
C17   C     C_1   0.499789 0.000111 0.124532 -0.023875
C18   C     C_1   0.500150 0.999872 0.875388 -0.024830
C19   C     C_1   0.999708 0.499885 0.124484 -0.019937
C20   C     C_1   0.000275 0.499801 0.875498 -0.020006
C21   C     C_1   0.499700 0.000416 0.374919 -0.138599
C22   C     C_1   0.500459 0.000179 0.625224 -0.140846
C23   C     C_1   0.999566 0.500056 0.374821 -0.132164
C24   C     C_1   0.000436 0.500031 0.625180 -0.132215
C25   C     C_3   0.505592 0.959782 0.241910 0.042542
C26   C     C_3   0.534776 0.976371 0.798773 0.050929
C27   C     C_3   0.000407 0.458303 0.236825 0.045046
C28   C     C_3   0.999047 0.458215 0.762557 0.044827
C29   C     C_3   0.499552 0.001056 0.207673 -0.116462
C30   C     C_3   0.500211 0.999970 0.792041 -0.117749
C31   C     C_3   0.999336 0.499987 0.207529 -0.117519
C32   C     C_3   0.000671 0.499872 0.792477 -0.117591
C33   C     C_3   0.466470 0.975116 0.230720 -0.283215
C34   C     C_3   0.538666 0.018377 0.774741 -0.267516
C35   C     C_3   0.963257 0.478138 0.227498 -0.284401
C36   C     C_3   0.036457 0.477642 0.772175 -0.284146
C37   C     C_3   0.499819 0.001348 0.291644 -0.052292
C38   C     C_3   0.500541 0.000269 0.708695 -0.054361
C39   C     C_3   0.999324 0.500380 0.291216 -0.052355
C40   C     C_3   0.000687 0.500301 0.708794 -0.052516
C41   C     C_3   0.461440 0.016356 0.197592 0.267697
C42   C     C_3   0.503722 0.041064 0.767557 0.253802
C43   C     C_3   0.963156 0.519646 0.199260 0.261936
C44   C     C_3   0.037109 0.519134 0.801037 0.261899
C45   C     C_3   0.493772 0.042111 0.257616 0.233805
C46   C     C_3   0.466504 0.023602 0.702335 0.227531
C47   C     C_3   0.998178 0.541519 0.262046 0.233602
C48   C     C_3   0.002380 0.541411 0.738581 0.233843
C49   C     C_1   0.499630 0.000478 0.161978 0.121738
C50   C     C_1   0.500194 0.999857 0.837817 0.117468
C51   C     C_1   0.999499 0.499831 0.161895 0.120120
C52   C     C_1   0.000495 0.499721 0.838098 0.120096
C53   C     C_1   0.499677 0.000844 0.337274 0.070781
C54   C     C_1   0.500664 0.000307 0.663048 0.066363
C55   C     C_1   0.999315 0.500178 0.336960 0.068933
C56   C     C_1   0.000692 0.500126 0.663045 0.069001
H1    H     H_    0.439067 0.954149 0.214845 0.179600
H2    H     H_    0.569696 0.033693 0.794544 0.181927
H3    H     H_    0.933553 0.460550 0.209259 0.177626
H4    H     H_    0.065925 0.459725 0.790148 0.177931
C57   C     C_R   0.842145 0.017998 0.308235 0.263802
C58   C     C_R   0.157954 0.017786 0.691854 0.263875
C59   C     C_R   0.341770 0.513326 0.306052 0.264642
C60   C     C_R   0.658191 0.514355 0.693404 0.263600
C61   C     C_R   0.865418 0.997707 0.364579 -0.269010
C62   C     C_R   0.134588 0.997730 0.635308 -0.267841
C63   C     C_R   0.365247 0.496503 0.364262 -0.273456
C64   C     C_R   0.634678 0.496199 0.635772 -0.269239
C65   C     C_R   0.842432 0.974200 0.372847 0.276598
C66   C     C_R   0.157488 0.974538 0.626666 0.276441
C67   C     C_R   0.342251 0.475915 0.374378 0.278479
C68   C     C_R   0.657586 0.474566 0.626136 0.273879
C69   C     C_R   0.795859 0.970304 0.324100 -0.098465
C70   C     C_R   0.204076 0.970775 0.675210 -0.098701
C71   C     C_R   0.295615 0.472244 0.326182 -0.099310
C72   C     C_R   0.704231 0.470978 0.674405 -0.098033
C73   C     C_R   0.772638 0.992832 0.268558 -0.011890
C74   C     C_R   0.227358 0.992844 0.731104 -0.011777
C75   C     C_R   0.272345 0.492013 0.269046 -0.013624
C76   C     C_R   0.727547 0.491671 0.731112 -0.018545
C77   C     C_R   0.795909 0.015796 0.260542 -0.006777
C78   C     C_R   0.204172 0.015449 0.739508 -0.007051
C79   C     C_R   0.295538 0.511655 0.258975 -0.003133
C80   C     C_R   0.704399 0.512337 0.740693 -0.006991
C81   C     C_R   0.771411 0.945069 0.328938 0.334525
C82   C     C_R   0.228489 0.946093 0.669880 0.330230
C83   C     C_R   0.271132 0.449936 0.333047 0.334372
C84   C     C_R   0.728678 0.447832 0.668038 0.335759
C85   C     C_R   0.725595 0.946973 0.282898 -0.170386
C86   C     C_R   0.274318 0.948041 0.715920 -0.155490
C87   C     C_R   0.225308 0.451934 0.286915 -0.165550
C88   C     C_R   0.774514 0.450013 0.714039 -0.168599
C89   C     C_R   0.702469 0.970905 0.229360 -0.051595
C90   C     C_R   0.297498 0.971380 0.769945 -0.051912
C91   C     C_R   0.202190 0.473156 0.231632 -0.049819
C92   C     C_R   0.797680 0.472123 0.768867 -0.049976
C93   C     C_R   0.725908 0.993135 0.221083 0.003986
C94   C     C_R   0.274084 0.993028 0.778609 0.006455
C95   C     C_R   0.225642 0.492569 0.221771 0.005336
C96   C     C_R   0.774259 0.492246 0.778391 0.005714
C97   C     C_R   0.702728 0.015988 0.165733 -0.001509
C98   C     C_R   0.297295 0.015067 0.834496 0.000021
C99   C     C_R   0.202468 0.512752 0.164877 0.001642
C100  C     C_R   0.797460 0.513187 0.834928 0.001073
C101  C     C_R   0.726874 0.031672 0.154830 0.099673
C102  C     C_R   0.273195 0.030060 0.845686 0.093576
C103  C     C_R   0.226372 0.524867 0.152389 0.090747
C104  C     C_R   0.773547 0.526081 0.847163 0.089039
C105  C     C_R   0.772657 0.035180 0.204059 -0.143584
C106  C     C_R   0.227485 0.034192 0.796397 -0.138256
C107  C     C_R   0.272235 0.527872 0.200946 -0.133965
C108  C     C_R   0.727705 0.529195 0.798482 -0.124448
C109  C     C_R   0.656231 0.972536 0.183807 0.280779
C110  C     C_R   0.343757 0.973008 0.815606 0.269112
C111  C     C_R   0.155939 0.474795 0.185821 0.281556
C112  C     C_R   0.843941 0.473938 0.814564 0.281474
C113  C     C_R   0.633625 0.999091 0.132198 -0.259455
C114  C     C_R   0.366394 0.998931 0.867809 -0.258725
C115  C     C_R   0.133471 0.499130 0.132582 -0.257220
C116  C     C_R   0.866463 0.498957 0.867415 -0.257986
C117  C     C_R   0.656665 0.022524 0.124168 0.207460
C118  C     C_R   0.343397 0.021527 0.876438 0.206609
C119  C     C_R   0.156551 0.520116 0.123156 0.200536
C120  C     C_R   0.843399 0.520484 0.876562 0.201177
H5    H     H_    0.708233 0.928429 0.289223 0.222474
H6    H     H_    0.291641 0.929971 0.709207 0.230747
H7    H     H_    0.207931 0.435661 0.294669 0.222414
H8    H     H_    0.791868 0.433121 0.706618 0.222468
H9    H     H_    0.790191 0.051738 0.196770 0.191061
H10   H     H_    0.210017 0.050361 0.804005 0.192070
H11   H     H_    0.289795 0.541421 0.192111 0.194267
H12   H     H_    0.710132 0.543197 0.807087 0.196399
O17   O     O_R   0.537500 0.935010 0.537500 -0.592221
O18   O     O_R   0.462500 0.935010 0.462500 -0.591081
O19   O     O_R   0.037500 0.435010 0.537500 -0.593116
O20   O     O_R   0.962500 0.435010 0.462500 -0.593371
C121  C     C_R   0.499961 0.914599 0.500150 0.787909
C122  C     C_R   0.999982 0.414629 0.499975 0.800846
O21   O     O_R   0.537510 0.999880 0.477060 -0.578838
O22   O     O_R   0.462490 0.999880 0.522940 -0.560270
O23   O     O_R   0.037510 0.499880 0.477060 -0.585740
O24   O     O_R   0.962490 0.499880 0.522940 -0.586263
O25   O     O_R   0.462420 0.999960 0.401940 -0.566989
O26   O     O_R   0.537580 0.999960 0.598060 -0.582361
O27   O     O_R   0.962420 0.499960 0.401940 -0.569922
O28   O     O_R   0.037580 0.499960 0.598060 -0.569320
C123  C     C_R   0.499876 0.000053 0.419851 0.805112
C124  C     C_R   0.500146 0.000033 0.580166 0.801203
C125  C     C_R   0.999859 0.500030 0.419847 0.804427
C126  C     C_R   0.000141 0.500032 0.580153 0.804402
Cu5   Cu    Cu3+1 0.544430 0.999860 0.544440 0.984932
Cu6   Cu    Cu3+1 0.455570 0.999860 0.455560 1.014798
Cu7   Cu    Cu3+1 0.044430 0.499860 0.544440 0.988498
Cu8   Cu    Cu3+1 0.955570 0.499860 0.455560 0.986733
O29   O     O_R   0.537530 0.064730 0.537550 -0.581126
O30   O     O_R   0.462470 0.064730 0.462450 -0.574584
O31   O     O_R   0.037530 0.564730 0.537550 -0.576165
O32   O     O_R   0.962470 0.564730 0.462450 -0.576714
C127  C     C_R   0.500018 0.085524 0.499991 0.819298
C128  C     C_R   0.000018 0.585516 0.500009 0.826561
O33   O     O_R   0.999920 0.064860 0.534930 -0.595537
O34   O     O_R   0.000080 0.064860 0.465070 -0.594777
O35   O     O_R   0.499920 0.564860 0.534930 -0.598032
O36   O     O_R   0.500080 0.564860 0.465070 -0.592510
C129  C     C_R   0.000003 0.085906 0.500018 0.784837
C130  C     C_R   0.499942 0.585804 0.499960 0.763774
O37   O     O_R   0.935130 0.999970 0.470150 -0.570886
O38   O     O_R   0.064870 0.999970 0.529850 -0.570221
O39   O     O_R   0.435130 0.499970 0.470150 -0.561659
O40   O     O_R   0.564870 0.499970 0.529850 -0.563231
O41   O     O_R   0.935060 0.999990 0.400100 -0.514615
O42   O     O_R   0.064940 0.999990 0.599900 -0.514475
O43   O     O_R   0.435060 0.499990 0.400100 -0.518640
O44   O     O_R   0.564940 0.499990 0.599900 -0.521990
C131  C     C_R   0.914064 0.999631 0.413963 0.879982
C132  C     C_R   0.085938 0.999636 0.586022 0.879412
C133  C     C_R   0.413997 0.499221 0.413858 0.863060
C134  C     C_R   0.585980 0.499133 0.586129 0.874426
Cu9   Cu    Cu3+1 1.000000 0.000000 0.541440 1.149790
Cu10  Cu    Cu3+1 0.000000 0.000000 0.458560 1.151761
Cu11  Cu    Cu3+1 0.500000 0.500000 0.541440 1.152484
Cu12  Cu    Cu3+1 0.500000 0.500000 0.458560 1.153752
O45   O     O_R   0.000080 0.935140 0.535060 -0.539353
O46   O     O_R   0.999920 0.935140 0.464940 -0.539003
O47   O     O_R   0.500080 0.435140 0.535060 -0.538865
O48   O     O_R   0.499920 0.435140 0.464940 -0.538456
C135  C     C_R   0.000005 0.914281 0.499992 0.940503
C136  C     C_R   0.500019 0.414290 0.500011 0.938697
C137  C     C_R   0.980757 0.158265 0.514701 0.060153
C138  C     C_R   0.019330 0.158261 0.485516 0.059393
C139  C     C_R   0.473183 0.657600 0.502590 0.061214
C140  C     C_R   0.525708 0.657869 0.496322 0.019035
C141  C     C_R   0.000026 0.134626 0.500078 -0.080484
C142  C     C_R   0.499639 0.634380 0.499688 -0.080048
C143  C     C_R   0.011684 0.204094 0.475355 0.069319
C144  C     C_R   0.988362 0.204131 0.524794 0.069307
C145  C     C_R   0.519225 0.703852 0.486121 0.080846
C146  C     C_R   0.478863 0.703770 0.511737 0.074787
C147  C     C_R   0.000003 0.227456 0.500045 0.024723
C148  C     C_R   0.499006 0.727147 0.498885 0.023157
C149  C     C_R   0.015465 0.227230 0.441402 -0.194047
C150  C     C_R   0.984571 0.227342 0.558722 -0.194123
C151  C     C_R   0.532655 0.727306 0.464014 -0.190549
C152  C     C_R   0.464740 0.727334 0.532871 -0.188934
C153  C     C_R   0.530276 0.772861 0.460352 -0.202696
C154  C     C_R   0.467174 0.772917 0.536601 -0.203458
C155  C     C_R   0.012307 0.272791 0.437353 -0.199277
C156  C     C_R   0.987657 0.272916 0.562663 -0.199139
C157  C     C_R   0.514815 0.797179 0.479309 0.086928
C158  C     C_R   0.483345 0.797202 0.518633 0.085882
C159  C     C_R   0.007082 0.297308 0.469211 0.081852
C160  C     C_R   0.992850 0.297368 0.530756 0.081877
C161  C     C_R   0.499034 0.773995 0.498917 0.028315
C162  C     C_R   0.999976 0.274234 0.500002 0.019351
C163  C     C_R   0.514024 0.843823 0.478015 0.004984
C164  C     C_R   0.484926 0.843839 0.521010 0.012411
C165  C     C_R   0.008094 0.343966 0.470123 0.051616
C166  C     C_R   0.991807 0.344023 0.529785 0.051713
C167  C     C_R   0.499773 0.866550 0.499913 -0.095028
C168  C     C_R   0.999945 0.366677 0.499942 -0.116254
H13   H     H_    0.018985 0.210409 0.415306 0.149084
H14   H     H_    0.981103 0.210585 0.584889 0.148673
H15   H     H_    0.543381 0.710972 0.446559 0.149083
H16   H     H_    0.453585 0.711146 0.549788 0.149676
H17   H     H_    0.541532 0.788283 0.443197 0.153823
H18   H     H_    0.455498 0.788413 0.553164 0.156467
H19   H     H_    0.014550 0.288099 0.409229 0.146573
H20   H     H_    0.985393 0.288282 0.590756 0.146452
C169  C     C_R   0.965308 0.842878 0.445480 0.279907
C170  C     C_R   0.034770 0.842978 0.554471 0.279389
C171  C     C_R   0.464776 0.342938 0.445813 0.277205
C172  C     C_R   0.535233 0.342999 0.554151 0.278440
C173  C     C_R   0.000026 0.865906 0.499981 -0.261538
C174  C     C_R   0.500018 0.365927 0.499992 -0.262666
C175  C     C_R   0.037286 0.796530 0.553216 -0.078218
C176  C     C_R   0.962810 0.796428 0.446736 -0.078274
C177  C     C_R   0.537648 0.296555 0.552737 -0.078563
C178  C     C_R   0.462415 0.296468 0.447115 -0.078704
C179  C     C_R   0.000050 0.773324 0.499979 -0.087482
C180  C     C_R   0.500045 0.273357 0.499910 -0.088021
C181  C     C_R   0.075577 0.772312 0.603514 0.363139
C182  C     C_R   0.924527 0.772113 0.396436 0.363441
C183  C     C_R   0.576204 0.272337 0.602492 0.364343
C184  C     C_R   0.423894 0.272134 0.397319 0.362655
C185  C     C_R   0.575215 0.226253 0.601515 -0.240622
C186  C     C_R   0.424915 0.226053 0.398288 -0.230632
C187  C     C_R   0.074596 0.726226 0.602511 -0.230850
C188  C     C_R   0.925515 0.726030 0.397451 -0.231789
C189  C     C_R   0.537640 0.203377 0.551084 0.062907
C190  C     C_R   0.462488 0.203277 0.448734 0.059895
C191  C     C_R   0.037324 0.703346 0.551608 0.061423
C192  C     C_R   0.962785 0.703250 0.448366 0.061604
C193  C     C_R   0.500060 0.226746 0.499905 0.115481
C194  C     C_R   0.000054 0.726715 0.499984 0.115332
C195  C     C_R   0.537577 0.157225 0.550654 -0.182565
C196  C     C_R   0.462543 0.157128 0.449208 -0.167992
C197  C     C_R   0.037279 0.657193 0.551159 -0.170872
C198  C     C_R   0.962825 0.657101 0.448835 -0.171387
C199  C     C_R   0.500050 0.133956 0.499953 -0.069745
C200  C     C_R   0.000047 0.633936 0.500005 -0.070848
H21   H     H_    0.604718 0.208163 0.639686 0.186065
H22   H     H_    0.395425 0.207884 0.360100 0.189793
H23   H     H_    0.103899 0.708137 0.641083 0.189338
H24   H     H_    0.896214 0.707865 0.358881 0.188846
H25   H     H_    0.566636 0.139411 0.590101 0.164746
H26   H     H_    0.433477 0.139239 0.409776 0.169894
H27   H     H_    0.066100 0.639363 0.590933 0.168586
H28   H     H_    0.933997 0.639201 0.409066 0.168313
N1    N     N_R   0.567215 0.056010 0.289486 0.153187
O49   O     O_R   0.591448 0.076767 0.341043 -0.296506
O50   O     O_R   0.574555 0.061589 0.257164 -0.301608
N2    N     N_R   0.421184 0.963512 0.697963 0.153888
O51   O     O_R   0.392135 0.951107 0.641242 -0.298195
O52   O     O_R   0.412609 0.959005 0.728939 -0.272452
N3    N     N_R   0.072961 0.546594 0.295577 0.154003
O53   O     O_R   0.099324 0.564407 0.349364 -0.293594
O54   O     O_R   0.081180 0.551096 0.264170 -0.293934
N4    N     N_R   0.927670 0.547316 0.705127 0.153610
O55   O     O_R   0.901548 0.565435 0.651609 -0.296038
O56   O     O_R   0.919509 0.551899 0.736599 -0.296625
N5    N     N_R   0.632123 0.949376 0.191460 0.120646
O57   O     O_R   0.609499 0.971200 0.196425 -0.365384
O58   O     O_R   0.630526 0.906469 0.189543 -0.327063
N6    N     N_R   0.367871 0.950436 0.807596 0.129506
O59   O     O_R   0.391011 0.972748 0.803892 -0.319029
O60   O     O_R   0.369179 0.907526 0.808330 -0.307647
N7    N     N_R   0.131661 0.453861 0.194544 0.118419
O61   O     O_R   0.108444 0.477473 0.197088 -0.358079
O62   O     O_R   0.130681 0.411036 0.196295 -0.328797
N8    N     N_R   0.868165 0.452466 0.806068 0.119018
O63   O     O_R   0.891273 0.475669 0.802987 -0.359408
O64   O     O_R   0.869326 0.409597 0.805254 -0.329698
N9    N     N_R   0.634148 0.056419 0.078464 0.120989
O65   O     O_R   0.649109 0.096678 0.093933 -0.311913
O66   O     O_R   0.599852 0.046927 0.021200 -0.385105
N10   N     N_R   0.366062 0.054429 0.923526 0.122586
O67   O     O_R   0.351508 0.094801 0.909672 -0.307191
O68   O     O_R   0.400352 0.043974 0.980358 -0.352338
N11   N     N_R   0.134325 0.552587 0.075713 0.123561
O69   O     O_R   0.150210 0.592385 0.088908 -0.303319
O70   O     O_R   0.099335 0.542158 0.019122 -0.356716
N12   N     N_R   0.865686 0.553342 0.923653 0.123518
O71   O     O_R   0.849984 0.593228 0.909990 -0.303434
O72   O     O_R   0.900532 0.543192 0.980388 -0.356044
C201  C     C_3   0.706410 0.041307 0.091642 -0.351275
C202  C     C_3   0.727509 0.013846 0.077609 -0.391673
C203  C     C_3   0.704273 0.021791 0.012559 -0.786084
H29   H     H_    0.668887 0.012579 0.979194 0.250015
H30   H     H_    0.706953 0.057082 0.006221 0.272775
H31   H     H_    0.719928 0.001361 0.003582 0.253562
H32   H     H_    0.762838 0.022540 0.109175 0.249821
H33   H     H_    0.725237 0.978172 0.083197 0.242567
H34   H     H_    0.671162 0.032513 0.055348 0.250218
H35   H     H_    0.709941 0.077055 0.088162 0.236431
C204  C     C_3   0.293725 0.037534 0.909309 -0.332382
C205  C     C_3   0.270346 0.010825 0.920301 -0.441488
C206  C     C_3   0.295638 0.012970 0.986954 -0.642847
H36   H     H_    0.328501 0.997239 0.016518 0.278204
H37   H     H_    0.299934 0.047810 0.001319 0.284356
H38   H     H_    0.277007 0.994999 0.992797 0.242859
H39   H     H_    0.236666 0.023915 0.892034 0.248407
H40   H     H_    0.267510 0.975704 0.907687 0.252134
H41   H     H_    0.328366 0.026409 0.944815 0.261989
H42   H     H_    0.292514 0.073263 0.915871 0.242045
C207  C     C_3   0.205317 0.530736 0.088242 -0.333257
C208  C     C_3   0.226282 0.500672 0.075962 -0.431180
C209  C     C_3   0.200772 0.502713 0.009180 -0.668626
H43   H     H_    0.166529 0.490509 0.979215 0.270228
H44   H     H_    0.199766 0.537141 0.996297 0.284598
H45   H     H_    0.217277 0.481601 0.002094 0.243300
H46   H     H_    0.260827 0.510843 0.104347 0.248478
H47   H     H_    0.226463 0.465978 0.087460 0.249999
H48   H     H_    0.170116 0.521571 0.053245 0.260559
H49   H     H_    0.208361 0.565804 0.081548 0.243013
C210  C     C_3   0.794555 0.532683 0.911198 -0.332832
C211  C     C_3   0.773347 0.503343 0.923669 -0.434727
C212  C     C_3   0.798848 0.505983 0.990421 -0.668066
H50   H     H_    0.832991 0.493484 0.020494 0.270833
H51   H     H_    0.800131 0.540619 0.003056 0.284262
H52   H     H_    0.782157 0.485413 0.997628 0.242472
H53   H     H_    0.738878 0.513821 0.895185 0.247498
H54   H     H_    0.772910 0.468450 0.912436 0.249125
H55   H     H_    0.829699 0.523361 0.946331 0.260493
H56   H     H_    0.791710 0.567943 0.917533 0.243513
C213  C     C_3   0.948860 0.136326 0.513696 -0.385806
C214  C     C_3   0.907705 0.116728 0.451062 -0.338783
C215  C     C_3   0.879447 0.152100 0.401677 -0.695148
H57   H     H_    0.869679 0.177742 0.414890 0.239703
H58   H     H_    0.897841 0.167861 0.394109 0.262640
H59   H     H_    0.849119 0.136698 0.358267 0.254242
H60   H     H_    0.916775 0.091542 0.436697 0.227311
H61   H     H_    0.887398 0.099854 0.454777 0.221510
H62   H     H_    0.966003 0.110965 0.549783 0.214869
H63   H     H_    0.935834 0.159752 0.524073 0.190272
C216  C     C_3   0.051329 0.136369 0.486703 -0.385243
C217  C     C_3   0.092418 0.116870 0.549382 -0.339051
C218  C     C_3   0.120592 0.152313 0.598805 -0.692847
H64   H     H_    0.130425 0.177975 0.585716 0.240400
H65   H     H_    0.102105 0.168034 0.606244 0.262188
H66   H     H_    0.150883 0.136985 0.642251 0.254859
H67   H     H_    0.083280 0.091668 0.563630 0.226592
H68   H     H_    0.112814 0.100037 0.545800 0.223256
H69   H     H_    0.034254 0.110957 0.450618 0.215426
H70   H     H_    0.064421 0.159823 0.476452 0.191153
C219  C     C_3   0.436497 0.634056 0.490343 -0.397220
C220  C     C_3   0.400033 0.615648 0.425146 -0.349529
C221  C     C_3   0.374139 0.652358 0.377458 -0.676900
H71   H     H_    0.360283 0.675586 0.386972 0.239494
H72   H     H_    0.395784 0.670802 0.377309 0.257166
H73   H     H_    0.346440 0.637779 0.331576 0.261494
H74   H     H_    0.413888 0.593275 0.415102 0.228564
H75   H     H_    0.376775 0.595906 0.421078 0.217294
H76   H     H_    0.450297 0.607486 0.523976 0.215325
H77   H     H_    0.419295 0.655631 0.495552 0.195620
C222  C     C_3   0.563022 0.635043 0.509572 -0.416408
C223  C     C_3   0.599345 0.618372 0.575573 -0.322864
C224  C     C_3   0.637973 0.598773 0.590016 -0.773039
H78   H     H_    0.626737 0.570123 0.559836 0.272751
H79   H     H_    0.652682 0.623943 0.583757 0.261726
H80   H     H_    0.663828 0.587509 0.638114 0.250821
H81   H     H_    0.611697 0.646267 0.607338 0.249305
H82   H     H_    0.586240 0.592773 0.583710 0.229035
H83   H     H_    0.550164 0.608006 0.476773 0.236701
H84   H     H_    0.579936 0.657518 0.504665 0.201680
C225  C     C_3   0.527467 0.869541 0.452347 -0.397118
C226  C     C_3   0.577820 0.874043 0.499800 -0.306293
C227  C     C_3   0.591130 0.898248 0.473343 -0.852959
H85   H     H_    0.579503 0.879749 0.433748 0.242794
H86   H     H_    0.576789 0.931958 0.458671 0.258796
H87   H     H_    0.627608 0.901094 0.508488 0.256175
H88   H     H_    0.590538 0.892689 0.539953 0.245768
H89   H     H_    0.593746 0.841073 0.515918 0.219852
H90   H     H_    0.513601 0.853760 0.409966 0.188492
H91   H     H_    0.512615 0.902956 0.436818 0.185630
C228  C     C_3   0.471796 0.869507 0.547142 -0.406837
C229  C     C_3   0.421522 0.874975 0.499524 -0.339093
C230  C     C_3   0.408147 0.896228 0.527406 -0.765547
H92   H     H_    0.417015 0.874198 0.562727 0.242913
H93   H     H_    0.424820 0.928627 0.548118 0.260595
H94   H     H_    0.371921 0.901524 0.491440 0.268090
H95   H     H_    0.409722 0.896038 0.461581 0.250367
H96   H     H_    0.404734 0.842517 0.479922 0.224072
H97   H     H_    0.485173 0.853194 0.588949 0.188620
H98   H     H_    0.487334 0.902638 0.563717 0.181862
C231  C     C_3   0.016614 0.369565 0.438000 -0.381603
C232  C     C_3   0.064568 0.365822 0.470503 -0.386023
C233  C     C_3   0.097206 0.390879 0.530789 -0.706003
H99   H     H_    0.089203 0.426590 0.523003 0.266321
H100  H     H_    0.096710 0.377716 0.562678 0.262770
H101  H     H_    0.131027 0.386847 0.552026 0.227265
H102  H     H_    0.075362 0.330943 0.479458 0.227335
H103  H     H_    0.066292 0.379700 0.440105 0.197814
H104  H     H_    0.993679 0.357607 0.390364 0.159368
H105  H     H_    0.008343 0.405040 0.432202 0.181705
C234  C     C_3   0.983283 0.369682 0.561891 -0.380955
C235  C     C_3   0.935327 0.365865 0.529380 -0.386145
C236  C     C_3   0.902696 0.390807 0.469082 -0.707684
H106  H     H_    0.910695 0.426535 0.476857 0.266428
H107  H     H_    0.903209 0.377594 0.437212 0.262657
H108  H     H_    0.868871 0.386725 0.447829 0.226820
H109  H     H_    0.924541 0.330966 0.520439 0.226964
H110  H     H_    0.933595 0.379798 0.559764 0.197740
H111  H     H_    0.006218 0.357825 0.609536 0.159556
H112  H     H_    0.991545 0.405169 0.567666 0.181804
N13   N     N_R   0.934195 0.866581 0.388835 0.159263
O73   O     O_R   0.930401 0.857217 0.345476 -0.269774
O74   O     O_R   0.910846 0.898500 0.381154 -0.308946
N14   N     N_R   0.065909 0.866787 0.611104 0.159135
O75   O     O_R   0.069728 0.857519 0.654494 -0.269776
O76   O     O_R   0.089259 0.898704 0.618742 -0.309132
N15   N     N_R   0.432854 0.366772 0.389407 0.159135
O77   O     O_R   0.428033 0.357909 0.345013 -0.267134
O78   O     O_R   0.409877 0.398428 0.383036 -0.309964
N16   N     N_R   0.566959 0.366812 0.610698 0.159202
O79   O     O_R   0.571701 0.357577 0.654933 -0.271663
O80   O     O_R   0.589929 0.398711 0.617442 -0.310522
C237  C     C_3   0.583102 0.971170 0.365743 -0.384391
C238  C     C_3   0.615979 0.957172 0.364922 -0.321502
C239  C     C_3   0.660427 0.945145 0.428788 -0.750100
H113  H     H_    0.674741 0.974062 0.459697 0.267837
H114  H     H_    0.656502 0.917438 0.447283 0.245783
H115  H     H_    0.683549 0.934789 0.426953 0.268195
H116  H     H_    0.603250 0.927986 0.335052 0.223752
H117  H     H_    0.620929 0.984397 0.347149 0.271979
H118  H     H_    0.597063 0.999065 0.398076 0.236560
H119  H     H_    0.577322 0.943415 0.381749 0.186368
C240  C     C_3   0.490562 0.912320 0.707183 -0.385488
C241  C     C_3   0.489365 0.875853 0.739092 -0.316951
C242  C     C_3   0.477047 0.831576 0.707149 -0.791284
H120  H     H_    0.443520 0.833230 0.659530 0.262213
H121  H     H_    0.501194 0.822494 0.706742 0.244197
H122  H     H_    0.477210 0.805544 0.731731 0.260979
H123  H     H_    0.522258 0.872571 0.786960 0.217537
H124  H     H_    0.464866 0.883993 0.739109 0.266122
H125  H     H_    0.458943 0.912566 0.657950 0.226749
H126  H     H_    0.517433 0.905698 0.711454 0.182831
C243  C     C_3   0.078434 0.460588 0.361761 -0.378609
C244  C     C_3   0.109424 0.442207 0.359317 -0.325410
C245  C     C_3   0.152531 0.426175 0.421945 -0.746224
H127  H     H_    0.169952 0.453936 0.455053 0.269869
H128  H     H_    0.145927 0.399749 0.438554 0.241945
H129  H     H_    0.174208 0.412665 0.418847 0.268424
H130  H     H_    0.093573 0.414006 0.327188 0.222086
H131  H     H_    0.117007 0.468070 0.343418 0.273244
H132  H     H_    0.095634 0.486948 0.396912 0.236947
H133  H     H_    0.069402 0.434107 0.375081 0.176778
C246  C     C_3   0.921054 0.461401 0.637663 -0.378201
C247  C     C_3   0.889830 0.443353 0.639846 -0.325021
C248  C     C_3   0.846507 0.427825 0.576983 -0.749423
H134  H     H_    0.829453 0.455791 0.544299 0.269476
H135  H     H_    0.852750 0.401339 0.559964 0.242204
H136  H     H_    0.824658 0.414548 0.579890 0.267979
H137  H     H_    0.905307 0.414964 0.671544 0.221987
H138  H     H_    0.882599 0.469286 0.656148 0.272853
H139  H     H_    0.904201 0.487962 0.602909 0.236648
H140  H     H_    0.929731 0.434831 0.623939 0.176882
N17   N     N_R   0.117154 0.793406 0.653134 0.164776
O81   O     O_R   0.134619 0.818327 0.641985 -0.243936
O82   O     O_R   0.141548 0.780400 0.708759 -0.283399
N18   N     N_R   0.882949 0.793106 0.346805 0.164270
O83   O     O_R   0.865481 0.818047 0.357938 -0.244752
O84   O     O_R   0.858557 0.779994 0.291186 -0.285368
N19   N     N_R   0.617955 0.293426 0.651416 0.164414
O85   O     O_R   0.634756 0.318336 0.639238 -0.247124
O86   O     O_R   0.643059 0.280429 0.707246 -0.292459
N20   N     N_R   0.382134 0.293088 0.348346 0.164797
O87   O     O_R   0.365119 0.317702 0.360428 -0.248019
O88   O     O_R   0.357204 0.280148 0.292507 -0.283748
N21   N     N_R   0.487096 0.087475 0.264631 0.182151
O89   O     O_R   0.482323 0.118649 0.232292 -0.237010
O90   O     O_R   0.485934 0.097099 0.303069 -0.307022
N22   N     N_R   0.428929 0.049791 0.650800 0.180712
O91   O     O_R   0.402971 0.067760 0.652232 -0.240786
O92   O     O_R   0.421005 0.055248 0.603225 -0.302603
N23   N     N_R   0.996777 0.587392 0.274256 0.182188
O93   O     O_R   0.995791 0.618843 0.245646 -0.236164
O94   O     O_R   0.996539 0.597191 0.313600 -0.305822
N24   N     N_R   0.004390 0.587272 0.727060 0.182013
O95   O     O_R   0.005794 0.618696 0.756143 -0.237140
O96   O     O_R   0.004756 0.597086 0.687861 -0.306435
N25   N     N_R   0.419117 0.033741 0.141187 0.150448
O97   O     O_R   0.389578 0.045046 0.138953 -0.319807
O98   O     O_R   0.410901 0.038832 0.093326 -0.322076
N26   N     N_R   0.507000 0.086709 0.784879 0.169402
O99   O     O_R   0.509912 0.118305 0.760454 -0.276477
O100  O     O_R   0.507283 0.096166 0.824822 -0.288276
N27   N     N_R   0.923053 0.541628 0.144981 0.152658
O101  O     O_R   0.894969 0.556320 0.144141 -0.310505
O102  O     O_R   0.914934 0.546490 0.097174 -0.312449
N28   N     N_R   0.077504 0.540653 0.855639 0.152809
O103  O     O_R   0.105775 0.555043 0.856687 -0.310024
O104  O     O_R   0.085702 0.545388 0.903532 -0.311900
C249  C     C_3   0.509298 0.912942 0.228092 -0.349695
C250  C     C_3   0.513171 0.878404 0.266772 -0.370724
C251  C     C_3   0.514263 0.831812 0.249833 -0.779251
H141  H     H_    0.483413 0.824846 0.201274 0.262746
H142  H     H_    0.542990 0.827931 0.257458 0.265548
H143  H     H_    0.517273 0.807520 0.278680 0.243781
H144  H     H_    0.543869 0.883823 0.315747 0.221232
H145  H     H_    0.484636 0.881178 0.259751 0.226426
H146  H     H_    0.479256 0.906135 0.179042 0.208653
H147  H     H_    0.538191 0.911006 0.235907 0.204500
C252  C     C_3   0.574434 0.951825 0.856852 -0.365976
C253  C     C_3   0.605326 0.934679 0.853671 -0.360671
C254  C     C_3   0.643902 0.909202 0.911239 -0.791704
H148  H     H_    0.663115 0.930641 0.952048 0.257350
H149  H     H_    0.631648 0.879995 0.916413 0.261137
H150  H     H_    0.666049 0.897664 0.908099 0.254736
H151  H     H_    0.587117 0.912423 0.813893 0.227086
H152  H     H_    0.618455 0.962868 0.848440 0.227878
H153  H     H_    0.592873 0.974968 0.895932 0.203508
H154  H     H_    0.562477 0.924158 0.864540 0.195777
C255  C     C_3   0.998761 0.411345 0.217647 -0.351196
C256  C     C_3   0.997999 0.376646 0.251715 -0.369965
C257  C     C_3   0.994480 0.330176 0.230127 -0.787233
H155  H     H_    0.963541 0.326595 0.180730 0.262303
H156  H     H_    0.023171 0.323139 0.238414 0.264324
H157  H     H_    0.994121 0.305743 0.255627 0.242952
H158  H     H_    0.028617 0.378754 0.301338 0.220357
H159  H     H_    0.969386 0.382545 0.243948 0.224855
H160  H     H_    0.968397 0.408118 0.167892 0.206572
H161  H     H_    0.027523 0.405988 0.225705 0.203143
C258  C     C_3   0.000074 0.411232 0.781029 -0.350856
C259  C     C_3   0.000377 0.376549 0.746436 -0.370127
C260  C     C_3   0.003287 0.330031 0.767326 -0.786984
H162  H     H_    0.034178 0.326093 0.816666 0.263041
H163  H     H_    0.974508 0.323301 0.758939 0.263801
H164  H     H_    0.003323 0.305613 0.741456 0.242757
H165  H     H_    0.969787 0.379010 0.696848 0.220116
H166  H     H_    0.029064 0.382141 0.754284 0.225120
H167  H     H_    0.030394 0.407653 0.830732 0.206911
H168  H     H_    0.971245 0.406185 0.772895 0.203090
N29   N     N_R   0.865503 0.041688 0.299725 0.124355
O105  O     O_R   0.883759 0.079533 0.326427 -0.389784
O106  O     O_R   0.869619 0.024720 0.266685 -0.316271
N30   N     N_R   0.134706 0.041340 0.700634 0.124318
O107  O     O_R   0.116672 0.079306 0.674410 -0.388496
O108  O     O_R   0.130305 0.024055 0.733210 -0.314471
N31   N     N_R   0.364875 0.532286 0.294467 0.125223
O109  O     O_R   0.374128 0.574184 0.303476 -0.386467
O110  O     O_R   0.371790 0.508778 0.268002 -0.297847
N32   N     N_R   0.635183 0.536131 0.703631 0.121415
O111  O     O_R   0.630924 0.578826 0.698880 -0.385452
O112  O     O_R   0.625501 0.514366 0.727735 -0.299879
N33   N     N_R   0.866457 0.956119 0.431623 0.166800
O113  O     O_R   0.864317 0.975109 0.465913 -0.304039
O114  O     O_R   0.893381 0.923218 0.453052 -0.252554
N34   N     N_R   0.133329 0.956557 0.567754 0.166571
O115  O     O_R   0.134870 0.976033 0.533088 -0.297536
O116  O     O_R   0.106678 0.923369 0.546495 -0.251586
N35   N     N_R   0.366377 0.460180 0.434188 0.167509
O117  O     O_R   0.365427 0.482267 0.468122 -0.302391
O118  O     O_R   0.392377 0.426223 0.456784 -0.248054
N36   N     N_R   0.633398 0.458081 0.566561 0.166986
O119  O     O_R   0.634961 0.479020 0.532658 -0.309758
O120  O     O_R   0.606778 0.424662 0.544093 -0.248772
N37   N     N_R   0.791817 0.914653 0.377745 0.166263
O121  O     O_R   0.781832 0.915884 0.407263 -0.291262
O122  O     O_R   0.811369 0.879824 0.382503 -0.230922
N38   N     N_R   0.208044 0.916231 0.620466 0.167002
O123  O     O_R   0.217763 0.918499 0.590665 -0.262282
O124  O     O_R   0.188835 0.880877 0.615367 -0.229210
N39   N     N_R   0.291472 0.422296 0.384263 0.165842
O125  O     O_R   0.282073 0.427851 0.414165 -0.287577
O126  O     O_R   0.310066 0.385659 0.391180 -0.233833
N40   N     N_R   0.708291 0.419175 0.617571 0.166343
O127  O     O_R   0.717980 0.423155 0.587855 -0.289624
O128  O     O_R   0.689169 0.383197 0.611198 -0.233483

loop_
_geom_bond_atom_site_label_1
_geom_bond_atom_site_label_2
_geom_bond_distance
_ccdc_geom_bond_type
C75   C79   1.410139 A    
C239  H113  1.110871 S    
C169  C173  1.409306 A    
C212  H50   1.110923 S    
C17   C49   1.202784 T    
C237  C238  1.531903 S    
C237  H119  1.106913 S    
C15   N3    1.457921 S    
C220  H74   1.106136 S    
C144  C147  1.408405 A    
C112  C116  1.404596 A    
C221  H73   1.110132 S    
C206  H36   1.110458 S    
C150  H14   1.081104 S    
C185  H21   1.084465 S    
C236  H106  1.109256 S    
C109  C113  1.404618 A    
C136  C174  1.465498 S    
C11   C27   1.555776 S    
C46   N22   1.457339 S    
C219  C220  1.537908 S    
C35   C39   1.555498 S    
C224  H79   1.110622 S    
C71   C75   1.422453 A    
C236  H108  1.110354 S    
C6    C18   1.430900 S    
C176  C179  1.422262 A    
C9    C13   1.544592 S    
C76   C80   1.410026 A    
C254  H150  1.110379 S    
C228  H98   1.108955 S    
N28   O103  1.300189 A    
C231  C232  1.542355 S    
C227  H87   1.110283 S    
C11   C39   1.551437 S    
C119  N11   1.438512 S    
C218  H66   1.110487 S    
C107  H11   1.081423 S    
O30   C127  1.300596 A    
C219  H77   1.103292 S    
C151  H15   1.079788 S    
C158  C164  1.414185 A    
C202  C203  1.527604 S    
O4    C4    1.295393 A    
C31   C43   1.538179 S    
C83   C87   1.390690 A    
C170  C173  1.409327 A    
N37   O122  1.301054 A    
C72   C84   1.421408 A    
Cu9   Cu10  2.650702 S    
C89   C109  1.403089 A    
O19   C122  1.293801 A    
C147  C162  1.417468 A    
C31   C51   1.464743 S    
C169  N13   1.437537 S    
C143  C149  1.401236 A    
C239  H115  1.110406 S    
C102  C204  1.525937 S    
C43   C47   1.530713 S    
N19   O86   1.301263 A    
C23   C55   1.202853 T    
C222  H84   1.103414 S    
N8    O64   1.301033 A    
C117  N9    1.438035 S    
C63   C67   1.415836 A    
C213  H62   1.107192 S    
C258  C259  1.532557 S    
O35   Cu11  1.976268 S    
C78   C106  1.401999 A    
O26   C124  1.298509 A    
C62   C66   1.414544 A    
C223  H82   1.106404 S    
N21   O90   1.300150 A    
C102  C106  1.395727 A    
C42   C46   1.530685 S    
C61   C131  1.476037 S    
O16   Cu4   1.945150 S    
N20   O87   1.301295 A    
C242  H120  1.110950 S    
O44   Cu11  1.980867 S    
C40   C56   1.463307 S    
C137  C141  1.426855 A    
O7    Cu4   1.976321 S    
C207  H48   1.102586 S    
N10   O67   1.301149 A    
C233  H99   1.109253 S    
O15   C7    1.298812 A    
C32   C52   1.464753 S    
C190  C196  1.398506 A    
N39   O126  1.301023 A    
C13   N1    1.457844 S    
C210  C211  1.539985 S    
C244  H131  1.110552 S    
N25   O97   1.300189 A    
N22   O91   1.300295 A    
C160  C162  1.416974 A    
O22   Cu6   1.943901 S    
O9    C5    1.298244 A    
N33   O113  1.301072 A    
N40   O128  1.301051 A    
O25   Cu6   1.946191 S    
C198  H28   1.084505 S    
C104  C210  1.526257 S    
C212  H52   1.110360 S    
C66   N34   1.434776 S    
C250  H144  1.108479 S    
C15   C31   1.542886 S    
O8    Cu4   1.975911 S    
N4    O55   1.300240 A    
C33   C41   1.546898 S    
C221  H71   1.110719 S    
C195  H25   1.084478 S    
C231  H105  1.106932 S    
C206  H38   1.110369 S    
C235  C236  1.525140 S    
C67   N35   1.434401 S    
C242  H122  1.110376 S    
O39   C133  1.291432 A    
C183  C185  1.396720 A    
C139  C146  1.413648 A    
C192  C198  1.398478 A    
C177  C183  1.425124 A    
C211  H54   1.112112 S    
O3    Cu2   1.977682 S    
C178  C184  1.425216 A    
C60   C64   1.411326 A    
C205  C206  1.526832 S    
C216  C217  1.539723 S    
C16   C48   1.531071 S    
N24   O95   1.300231 A    
C95   C99   1.422849 A    
C249  H147  1.109721 S    
C149  C155  1.384317 A    
C253  C254  1.525692 S    
O20   C122  1.293911 A    
C30   C50   1.464563 S    
C164  C228  1.531267 S    
C213  C214  1.539623 S    
N14   O75   1.301120 A    
O45   C135  1.284937 A    
N2    O52   1.300005 A    
C247  C248  1.525422 S    
O21   C123  1.298599 A    
C215  H59   1.110495 S    
C217  H68   1.111643 S    
O22   C124  1.299091 A    
C73   C93   1.416928 A    
N13   O73   1.301123 A    
C103  C107  1.395580 A    
O3    C3    1.295169 A    
C259  H165  1.108672 S    
C75   C95   1.416138 A    
C204  C205  1.540814 S    
C101  C105  1.395823 A    
C191  C197  1.398593 A    
N38   O123  1.301197 A    
N36   O119  1.301092 A    
C140  C145  1.412359 A    
C19   C51   1.203205 T    
C250  C251  1.525191 S    
C2    C114  1.462172 S    
C58   N30   1.436366 S    
C33   H1    1.110104 S    
C225  C226  1.535874 S    
C225  H90   1.109975 S    
C214  H60   1.105304 S    
O16   C8    1.298783 A    
C185  C189  1.393020 A    
C145  C151  1.402857 A    
C155  C159  1.408776 A    
N11   O70   1.301466 A    
C115  C119  1.408051 A    
C228  C229  1.536189 S    
C128  C200  1.467208 S    
C14   C46   1.530746 S    
C204  H41   1.103596 S    
C208  H46   1.110114 S    
N3    O54   1.300152 A    
C57   C77   1.403866 A    
C260  H162  1.110863 S    
C105  H9    1.081233 S    
C240  H126  1.110317 S    
C233  H100  1.110331 S    
C171  N15   1.437223 S    
C211  H53   1.110108 S    
C59   C79   1.402675 A    
C12   C16   1.545126 S    
N34   O116  1.301592 A    
C35   H3    1.110094 S    
C44   C48   1.530701 S    
C171  C178  1.414856 A    
C59   N31   1.435286 S    
N9    O66   1.301776 A    
O38   Cu10  1.976386 S    
C138  C143  1.410571 A    
C68   C72   1.419166 A    
N18   O83   1.301300 A    
C179  C194  1.412346 A    
C246  H139  1.111293 S    
C94   C98   1.422555 A    
C37   C53   1.464011 S    
C24   C56   1.202844 T    
C255  C256  1.532535 S    
C205  H40   1.112169 S    
C62   C132  1.476229 S    
O5    Cu3   1.976321 S    
C99   C103  1.422573 A    
C175  C181  1.425160 A    
C234  H111  1.110046 S    
O36   C130  1.287229 A    
C35   C43   1.547056 S    
C106  H10   1.080870 S    
C36   C44   1.547057 S    
N16   O79   1.301118 A    
C229  H96   1.110369 S    
C159  C162  1.416999 A    
C86   C90   1.399289 A    
C16   C32   1.542905 S    
O8    C4    1.298478 A    
O23   C125  1.298841 A    
C186  H22   1.084477 S    
N6    O60   1.301045 A    
C25   C33   1.559682 S    
C238  H116  1.108181 S    
C247  H138  1.110551 S    
C201  H35   1.111548 S    
C201  C202  1.539970 S    
C187  C191  1.393045 A    
N35   O117  1.301087 A    
Cu9   O45   1.976101 S    
C230  H93   1.110945 S    
C74   C94   1.416771 A    
C90   C110  1.403573 A    
C238  C239  1.525451 S    
C10   C14   1.544852 S    
O13   Cu3   1.945427 S    
C148  C161  1.419608 A    
C9    C237  1.530544 S    
O41   Cu10  1.980872 S    
O35   C130  1.286922 A    
C203  H30   1.110782 S    
O40   Cu12  1.976386 S    
C171  C174  1.408865 A    
C234  H112  1.106882 S    
O27   Cu8   1.946191 S    
C154  C158  1.407142 A    
C47   N23   1.457094 S    
C92   C96   1.412160 A    
N17   O82   1.301266 A    
O5    C1    1.298955 A    
C41   C45   1.530611 S    
N25   O98   1.300195 A    
C16   N4    1.457925 S    
C252  C253  1.531595 S    
C15   C47   1.531097 S    
Cu10  O46   1.976369 S    
N1    O49   1.300251 A    
C58   C78   1.403628 A    
C101  C201  1.526169 S    
C256  H159  1.111444 S    
O15   Cu4   1.945427 S    
C248  H135  1.111076 S    
C130  C142  1.472005 S    
C253  H151  1.109107 S    
N32   O111  1.300402 A    
C235  H110  1.111784 S    
C89   C93   1.412523 A    
C27   C255  1.529744 S    
N26   O100  1.300171 A    
O28   C126  1.298526 A    
C91   C95   1.412326 A    
C202  H33   1.112141 S    
C60   C80   1.402604 A    
N23   O93   1.300230 A    
O33   Cu9   1.976268 S    
C69   C73   1.422826 A    
C88   C92   1.399370 A    
C38   C54   1.463838 S    
C260  H164  1.110460 S    
C84   C88   1.391186 A    
C81   C85   1.390333 A    
C20   C52   1.203217 T    
C42   N26   1.457096 S    
O14   C6    1.298405 A    
C109  N5    1.437514 S    
C10   C26   1.555810 S    
C220  H75   1.111796 S    
C221  H72   1.110641 S    
N19   O85   1.301311 A    
C151  C153  1.382999 A    
C156  H20   1.079037 S    
C138  C141  1.426678 A    
C36   H4    1.110096 S    
C164  C167  1.415501 A    
C177  C180  1.422349 A    
C181  N17   1.434732 S    
O10   C6    1.297946 A    
C12   C246  1.532069 S    
N3    O53   1.300238 A    
C224  H78   1.110557 S    
C209  H45   1.110358 S    
O44   C134  1.286327 A    
C91   C111  1.403359 A    
C72   C76   1.422536 A    
C254  H149  1.110931 S    
C137  C213  1.537225 S    
N28   O104  1.300191 A    
C251  H142  1.110944 S    
C157  C161  1.417601 A    
C244  C245  1.525424 S    
C257  H157  1.110455 S    
O41   C131  1.286773 A    
C218  H65   1.110633 S    
C235  H109  1.108333 S    
C21   C53   1.203307 T    
N15   O77   1.301105 A    
C139  C142  1.424161 A    
C219  H76   1.106417 S    
C241  C242  1.526112 S    
C192  C194  1.409063 A    
C197  C200  1.400666 A    
C246  C247  1.532110 S    
Cu11  O47   1.976101 S    
C238  H117  1.110369 S    
C258  H168  1.109734 S    
C34   H2    1.110097 S    
C86   H6    1.082102 S    
C79   C107  1.402563 A    
O1    Cu1   1.977682 S    
C57   C61   1.410140 A    
Cu6   O30   1.976598 S    
C77   C105  1.401897 A    
C191  C194  1.409120 A    
C59   C63   1.411940 A    
C18   C50   1.203032 T    
C118  N10   1.438144 S    
C245  H127  1.110882 S    
N30   O107  1.300475 A    
C182  N18   1.434742 S    
N12   O72   1.301526 A    
C23   C125  1.430641 S    
C245  H129  1.110415 S    
C196  H26   1.084481 S    
C259  C260  1.525195 S    
C145  C148  1.411940 A    
C210  H56   1.111421 S    
C197  H27   1.084499 S    
O20   Cu8   1.976507 S    
O21   Cu5   1.943905 S    
O46   C135  1.284932 A    
O42   C132  1.287300 A    
C28   C32   1.553281 S    
C25   C249  1.530109 S    
C172  N16   1.437329 S    
C34   C38   1.556216 S    
N21   O89   1.300229 A    
O48   C136  1.284942 A    
C65   N33   1.434938 S    
C232  C233  1.525116 S    
C70   C74   1.422577 A    
C13   C29   1.542511 S    
C183  N19   1.434744 S    
C41   N25   1.456863 S    
C252  H154  1.109739 S    
N10   O68   1.301529 A    
C64   C134  1.479386 S    
N29   O106  1.301161 A    
C3    C115  1.459173 S    
C214  C215  1.528421 S    
C60   N32   1.435138 S    
C1    C113  1.462543 S    
C28   C258  1.529738 S    
C74   C78   1.411282 A    
N22   O92   1.300143 A    
C243  H133  1.110091 S    
C213  H63   1.105939 S    
C4    C116  1.460538 S    
C154  H18   1.079187 S    
Cu8   O32   1.976598 S    
C100  C104  1.422577 A    
C216  H70   1.106022 S    
C236  H107  1.110333 S    
N12   O71   1.301181 A    
C212  H51   1.110894 S    
C250  H145  1.111451 S    
C249  C250  1.532588 S    
O27   C125  1.298539 A    
C12   C28   1.555786 S    
C190  C193  1.408999 A    
C57   N29   1.436411 S    
N4    O56   1.300146 A    
C231  H104  1.110050 S    
C206  H37   1.110883 S    
C22   C124  1.431073 S    
C172  C177  1.414591 A    
C66   C70   1.418267 A    
C166  C168  1.418317 A    
C208  H47   1.112109 S    
C251  H143  1.110461 S    
O12   Cu2   1.945131 S    
C22   C54   1.203107 T    
C29   C41   1.537960 S    
N38   O124  1.301046 A    
C13   C45   1.531310 S    
N7    O61   1.301031 A    
C97   C117  1.418815 A    
O34   Cu10  1.975991 S    
C223  C224  1.527410 S    
O18   C121  1.293796 A    
C114  C118  1.409131 A    
C224  H80   1.109958 S    
C209  H43   1.110935 S    
C61   C65   1.414081 A    
C217  H67   1.105402 S    
C27   C31   1.553278 S    
C34   C42   1.547217 S    
C82   N38   1.432883 S    
N37   O121  1.301233 A    
C249  H146  1.111465 S    
C65   C69   1.418173 A    
N24   O96   1.300143 A    
O43   Cu12  1.980872 S    
N31   O109  1.300005 A    
O37   Cu9   1.976390 S    
N14   O76   1.300829 A    
C157  C163  1.413752 A    
C195  C199  1.400762 A    
C257  H155  1.110864 S    
C163  C225  1.531061 S    
C170  N14   1.437485 S    
C243  C244  1.532100 S    
C143  C147  1.408351 A    
C239  H114  1.111160 S    
O24   C126  1.298840 A    
C196  C199  1.400829 A    
C150  C156  1.384308 A    
C222  H83   1.107217 S    
C26   C34   1.560102 S    
C48   N24   1.457099 S    
O1    C1    1.295908 A    
C187  H23   1.084465 S    
C215  H58   1.110632 S    
N5    O58   1.301052 A    
C71   C83   1.421587 A    
C138  C216  1.537179 S    
C26   C252  1.529996 S    
C9    C37   1.551970 S    
N36   O120  1.301610 A    
C226  H88   1.110483 S    
C32   C44   1.538197 S    
C11   C15   1.545128 S    
C256  C257  1.525199 S    
C12   C40   1.551421 S    
C214  H61   1.111642 S    
C156  C160  1.408761 A    
C210  H55   1.102612 S    
O40   C134  1.291462 A    
C172  C174  1.408874 A    
C255  H161  1.109740 S    
N27   O102  1.300199 A    
C113  C117  1.409556 A    
N8    O63   1.301048 A    
O28   Cu7   1.946185 S    
C33   C37   1.555628 S    
C11   C243  1.532065 S    
C163  C167  1.415093 A    
N5    O57   1.301106 A    
C116  C120  1.408349 A    
C37   C45   1.536354 S    
N23   O94   1.300143 A    
C45   N21   1.457069 S    
C223  H81   1.111961 S    
O6    C2    1.299010 A    
O32   C128  1.300488 A    
C222  C223  1.536088 S    
C146  C152  1.403309 A    
C92   C112  1.403806 A    
C85   H5    1.082121 S    
C240  H125  1.109369 S    
C111  C115  1.403984 A    
C68   N36   1.434574 S    
C189  C193  1.409118 A    
C207  H49   1.111428 S    
C220  C221  1.528579 S    
C203  H29   1.110556 S    
C58   C62   1.409856 A    
C149  H13   1.081147 S    
N9    O65   1.301184 A    
C244  H130  1.108231 S    
C83   N39   1.432703 S    
N18   O84   1.301267 A    
O2    Cu1   1.978101 S    
O10   Cu1   1.945131 S    
O17   C121  1.294830 A    
N40   O127  1.301215 A    
O13   C5    1.297914 A    
C144  C150  1.401291 A    
C120  N12   1.438464 S    
N11   O69   1.301188 A    
C36   C40   1.555490 S    
C5    C17   1.430496 S    
C40   C48   1.536134 S    
C169  C176  1.414706 A    
C184  C186  1.396726 A    
C80   C108  1.402464 A    
C9    C25   1.555406 S    
C226  C227  1.524597 S    
N1    O50   1.300143 A    
N16   O80   1.300707 A    
C44   N28   1.457309 S    
C153  C157  1.406960 A    
O34   C129  1.288654 A    
N30   O108  1.301167 A    
N15   O78   1.300821 A    
Cu5   Cu6   2.694121 S    
Cu11  Cu12  2.650702 S    
C201  H34   1.101463 S    
C215  H57   1.110695 S    
C230  H92   1.110172 S    
C111  N7    1.437444 S    
Cu7   Cu8   2.694121 S    
O7    C3    1.298028 A    
C184  N20   1.434611 S    
C188  H24   1.084468 S    
N2    O51   1.300344 A    
C165  C231  1.537054 S    
C181  C187  1.396809 A    
C87   H7    1.082212 S    
C182  C188  1.396770 A    
O43   C133  1.286913 A    
C81   N37   1.433050 S    
C241  H123  1.108641 S    
N27   O101  1.300189 A    
C10   C38   1.551793 S    
O23   Cu7   1.943905 S    
C158  C161  1.417125 A    
N17   O81   1.301300 A    
O42   Cu9   1.980867 S    
N13   O74   1.300831 A    
C93   C97   1.423488 A    
C69   C81   1.420773 A    
C97   C101  1.423726 A    
C121  C167  1.455989 S    
C64   C68   1.415301 A    
C129  C141  1.476300 S    
C227  H85   1.110950 S    
C228  H97   1.110258 S    
C76   C96   1.416352 A    
C25   C29   1.552794 S    
C248  H134  1.110879 S    
C85   C89   1.399400 A    
C39   C47   1.536151 S    
C29   C49   1.464048 S    
C227  H86   1.110611 S    
C127  C199  1.467604 S    
O12   C8    1.297734 A    
C160  C166  1.414128 A    
O9    Cu1   1.944854 S    
C110  N6    1.437334 S    
C104  C108  1.395663 A    
C204  H42   1.111341 S    
C38   C46   1.535813 S    
C14   N2    1.457860 S    
C232  H102  1.108315 S    
C260  H163  1.110939 S    
C153  H17   1.078915 S    
C233  H101  1.110355 S    
C175  C179  1.422225 A    
O4    Cu2   1.978101 S    
C14   C30   1.542529 S    
C137  C144  1.410748 A    
O36   Cu12  1.975991 S    
C189  C195  1.398541 A    
C255  H160  1.111460 S    
C240  C241  1.531448 S    
C188  C192  1.393045 A    
N34   O115  1.301073 A    
C103  C207  1.526332 S    
C186  C190  1.393008 A    
N20   O88   1.301261 A    
N39   O125  1.301199 A    
N35   O118  1.301701 A    
O33   C129  1.288553 A    
C152  H16   1.079154 S    
O11   Cu2   1.944854 S    
O29   C127  1.300739 A    
O39   Cu11  1.976390 S    
Cu5   O29   1.977009 S    
C88   H8    1.082152 S    
C246  H140  1.110098 S    
N31   O110  1.301039 A    
C98   C102  1.422327 A    
O25   C123  1.299190 A    
C176  C182  1.425134 A    
C205  H39   1.110202 S    
C209  H44   1.110896 S    
O6    Cu3   1.975911 S    
Cu7   O31   1.977009 S    
C251  H141  1.110859 S    
O31   C128  1.300641 A    
C155  H19   1.079044 S    
O17   Cu5   1.976093 S    
C254  H148  1.110316 S    
O18   Cu6   1.976507 S    
C229  H95   1.110150 S    
C257  H156  1.110943 S    
C218  H64   1.110696 S    
C90   C94   1.412263 A    
C259  H166  1.111444 S    
C166  C234  1.537034 S    
C180  C193  1.412391 A    
N6    O59   1.300955 A    
C253  H152  1.111470 S    
C247  H137  1.108230 S    
C30   C42   1.538117 S    
C198  C200  1.400693 A    
C165  C168  1.418330 A    
C258  H167  1.111459 S    
C98   C118  1.418137 A    
C99   C119  1.417187 A    
O2    C2    1.295627 A    
C39   C55   1.463325 S    
C178  C180  1.422500 A    
C202  H32   1.109993 S    
C230  H94   1.110230 S    
C217  C218  1.528411 S    
C226  H89   1.110052 S    
C27   C35   1.559835 S    
C225  H91   1.108738 S    
O47   C136  1.284683 A    
C112  N8    1.437401 S    
C170  C175  1.414726 A    
C28   C36   1.559854 S    
C43   N27   1.457308 S    
C70   C82   1.421164 A    
O37   C131  1.289231 A    
O14   Cu3   1.945150 S    
C140  C142  1.423110 A    
C152  C154  1.383731 A    
C110  C114  1.404746 A    
C203  H31   1.110428 S    
N32   O112  1.301044 A    
C245  H128  1.111081 S    
O24   Cu8   1.943901 S    
Cu1   Cu3   2.694170 S    
C84   N40   1.432898 S    
C26   C30   1.553224 S    
Cu2   Cu4   2.694170 S    
C159  C165  1.414136 A    
C229  C230  1.524892 S    
C242  H121  1.111102 S    
C135  C173  1.465875 S    
N7    O62   1.301030 A    
O19   Cu7   1.976093 S    
C208  C209  1.527654 S    
N33   O114  1.301586 A    
C108  H12   1.081414 S    
C146  C148  1.412556 A    
C21   C123  1.431445 S    
O11   C7    1.297700 A    
C211  C212  1.527650 S    
C8    C20   1.431239 S    
C252  H153  1.111254 S    
C139  C219  1.537990 S    
C256  H158  1.108673 S    
N29   O105  1.300450 A    
C248  H136  1.110416 S    
C24   C126  1.430618 S    
C241  H124  1.110687 S    
C234  C235  1.542306 S    
C237  H118  1.111254 S    
N26   O99   1.300253 A    
O38   C132  1.288803 A    
C67   C71   1.418823 A    
C82   C86   1.390637 A    
Cu12  O48   1.976369 S    
C243  H132  1.111293 S    
C10   C240  1.531230 S    
C63   C133  1.480352 S    
C100  C120  1.417454 A    
O26   Cu5   1.946185 S    
C87   C91   1.399008 A    
C207  C208  1.539973 S    
C7    C19   1.431222 S    
C73   C77   1.410894 A    
C232  H103  1.111772 S    
C96   C100  1.422841 A    
C140  C222  1.536469 S    
C122  C168  1.453059 S    
C216  H69   1.107193 S    
