data_mof_unit_pretest_1314.cif
_audit_creation_date              2012-12-11T16:48:25-0500
_audit_creation_method            fapswitch 2.2
_symmetry_space_group_name_H-M    P1
_symmetry_Int_Tables_number       1
_space_group_crystal_system       triclinic
_cell_length_a                    17.373136
_cell_length_b                    24.400386
_cell_length_c                    14.956379
_cell_angle_alpha                 89.783434
_cell_angle_beta                  125.613586
_cell_angle_gamma                 90.376189
_cell_volume                      5154.21628515

loop_
_atom_site_label
_atom_site_type_symbol
_atom_type_description
_atom_site_fract_x
_atom_site_fract_y
_atom_site_fract_z
_atom_type_partial_charge
C1    C     C_R   0.353958 0.347901 0.907885 -0.146372
C2    C     C_R   0.436974 0.497920 0.634361 0.080147
C3    C     C_R   0.056781 0.847536 0.908910 -0.127028
C4    C     C_R   0.382284 0.315527 0.997311 0.070970
C5    C     C_R   0.614885 0.315794 0.002104 0.073539
C6    C     C_R   0.884406 0.815067 0.997169 0.076824
C7    C     C_R   0.116107 0.816018 0.001853 0.067260
C8    C     C_3   0.435523 0.758293 0.185652 -0.352712
C9    C     C_3   0.388580 0.790676 0.077195 -0.192832
C10   C     C_3   0.459515 0.829562 0.081072 -0.979682
C11   C     C_3   0.565844 0.747918 0.804715 -0.353342
C12   C     C_3   0.608293 0.782174 0.910286 -0.193187
C13   C     C_R   0.959088 0.996965 0.285295 0.072742
C14   C     C_3   0.533325 0.818707 0.901555 -0.982224
C15   C     C_3   0.938986 0.263553 0.194655 -0.357324
C16   C     C_3   0.893563 0.297968 0.088749 -0.195983
C17   C     C_3   0.962203 0.341907 0.101621 -0.971833
C18   C     C_3   0.065971 0.245946 0.814737 -0.350675
C19   C     C_3   0.110937 0.278224 0.922991 -0.194170
C20   C     C_3   0.036149 0.310175 0.923648 -0.972400
C21   C     C_R   0.937651 0.997919 0.634586 0.078105
C22   C     C_R   0.202709 0.498315 0.631889 0.138396
C23   C     C_R   0.825748 0.498103 0.307976 0.136551
C24   C     C_R   0.674213 0.997851 0.695530 0.135971
C25   C     C_R   0.297406 0.998242 0.368081 0.138327
C26   C     C_2   0.977926 0.457436 0.376189 -0.116297
C27   C     C_2   0.079317 0.453580 0.462623 -0.116911
C28   C     C_2   0.419781 0.953104 0.537209 -0.117031
C29   C     C_R   0.642576 0.347492 0.091481 -0.159647
C30   C     C_2   0.521014 0.956671 0.624966 -0.115039
C31   C     C_2   0.927660 0.498276 0.378339 -0.195907
C32   C     C_2   0.129441 0.498860 0.514433 -0.197567
C33   C     C_2   0.370670 0.998518 0.485591 -0.198798
C34   C     C_2   0.572354 0.998097 0.625480 -0.194980
C35   C     C_R   0.278050 0.701873 0.102338 0.109453
C36   C     C_R   0.727621 0.696488 0.894675 0.113624
C37   C     C_R   0.782663 0.205454 0.103137 0.111212
C38   C     C_R   0.227518 0.195403 0.895684 0.112169
C39   C     C_R   0.253496 0.679463 0.002983 0.017850
C40   C     C_R   0.855915 0.847475 0.908041 -0.158591
C41   C     C_R   0.751386 0.673761 0.993554 0.016888
C42   C     C_R   0.761285 0.185944 0.003449 0.020470
C43   C     C_R   0.254355 0.170499 0.994286 0.015550
C44   C     C_R   0.161778 0.688943 0.908013 -0.196167
C45   C     C_R   0.841989 0.684954 0.089502 -0.196456
C46   C     C_R   0.669032 0.193652 0.908102 -0.194336
C47   C     C_R   0.344784 0.182690 0.089638 -0.198001
C48   C     C_R   0.609389 0.230830 0.910129 -0.205473
C49   C     C_R   0.396261 0.226961 0.088986 -0.205341
C50   C     C_R   0.106063 0.729420 0.909727 -0.204025
C51   C     C_R   0.144027 0.847782 0.091564 -0.148284
C52   C     C_R   0.896266 0.727381 0.088902 -0.206627
C53   C     C_R   0.642590 0.259449 0.007859 0.043865
C54   C     C_R   0.358089 0.257809 0.992031 0.044610
C55   C     C_R   0.142007 0.759172 0.007139 0.044955
C56   C     C_R   0.860269 0.757414 0.991597 0.043415
C57   C     C_R   0.408500 0.632302 0.090028 -0.130407
C58   C     C_R   0.596392 0.625011 0.907553 -0.135734
C59   C     C_R   0.914263 0.136586 0.091153 -0.134146
C60   C     C_R   0.098793 0.122588 0.908620 -0.133947
C61   C     C_R   0.721470 0.238713 0.106870 0.127624
C62   C     C_R   0.322288 0.648960 0.998651 0.065838
C63   C     C_R   0.282235 0.235193 0.892884 0.126368
C64   C     C_R   0.219873 0.737892 0.106057 0.127330
C65   C     C_R   0.784709 0.734616 0.892199 0.128562
C66   C     C_3   0.801660 0.264717 0.212660 -0.588415
C67   C     C_3   0.198115 0.260203 0.790057 -0.585733
C68   C     C_3   0.302039 0.764216 0.209528 -0.586178
C69   C     C_3   0.702286 0.758847 0.786476 -0.588864
C70   C     C_3   0.366796 0.726356 0.202019 -0.077103
C71   C     C_3   0.638544 0.718612 0.792689 -0.075527
C72   C     C_3   0.869295 0.229229 0.205725 -0.075265
C73   C     C_R   0.681542 0.643739 0.997980 0.066963
C74   C     C_3   0.136671 0.218460 0.796996 -0.075374
C75   C     C_R   0.401105 0.445660 0.472664 0.157319
C76   C     C_R   0.408130 0.445392 0.385643 0.164727
C77   C     C_R   0.902301 0.945616 0.473192 0.154833
C78   C     C_R   0.907980 0.945267 0.385172 0.164464
C79   C     C_R   0.401007 0.495445 0.518969 0.036076
C80   C     C_R   0.415366 0.494865 0.343518 0.036940
C81   C     C_R   0.901927 0.995406 0.519225 0.033926
C82   C     C_R   0.913323 0.994708 0.341389 0.037048
C83   C     C_R   0.381534 0.543675 0.457498 -0.203637
C84   C     C_R   0.831019 0.156314 0.000117 0.064797
C85   C     C_R   0.388605 0.543352 0.369083 -0.201618
C86   C     C_R   0.881287 0.043513 0.457069 -0.205139
C87   C     C_R   0.886673 0.043107 0.367386 -0.201459
C88   C     C_3   0.470790 0.396094 0.428372 -0.525018
C89   C     C_3   0.463278 0.396333 0.523721 -0.519833
C90   C     C_3   0.971834 0.896446 0.428289 -0.524645
C91   C     C_3   0.965559 0.896760 0.524551 -0.517041
C92   C     C_R   0.484006 0.452167 0.251602 -0.147146
C93   C     C_R   0.452042 0.453043 0.698416 -0.143623
C94   C     C_R   0.982812 0.952207 0.250224 -0.147278
C95   C     C_R   0.185780 0.139215 0.999554 0.067406
C96   C     C_R   0.952515 0.953034 0.698598 -0.142966
C97   C     C_R   0.247526 0.544308 0.694955 -0.159187
C98   C     C_R   0.769749 0.544297 0.275160 -0.147360
C99   C     C_R   0.730386 0.044247 0.728239 -0.143483
C100  C     C_R   0.252640 0.044262 0.305303 -0.163244
C101  C     C_R   0.493596 0.543423 0.264901 -0.127688
C102  C     C_R   0.452161 0.544224 0.696378 -0.139987
C103  C     C_R   0.990399 0.043575 0.261508 -0.122043
C104  C     C_R   0.952321 0.044214 0.696412 -0.143125
C105  C     C_R   0.247838 0.453074 0.697254 -0.113727
C106  C     C_R   0.461774 0.496921 0.288229 0.073425
C107  C     C_R   0.767644 0.452504 0.265412 -0.125319
C108  C     C_R   0.732001 0.952323 0.736074 -0.125917
C109  C     C_R   0.252016 0.953048 0.302452 -0.114124
C110  C     C_R   0.314874 0.630685 0.906159 -0.137129
C111  C     C_R   0.685025 0.631003 0.090870 -0.132541
C112  C     C_R   0.822190 0.137102 0.907664 -0.135023
C113  C     C_R   0.189351 0.126073 0.092582 -0.136234
C114  C     C_R   0.443279 0.346843 0.090245 -0.143097
C115  C     C_R   0.556337 0.347405 0.909056 -0.127302
C116  C     C_R   0.944158 0.846612 0.090149 -0.143013
H1    H     H_    0.321422 0.334471 0.824344 0.101044
H2    H     H_    0.866359 0.665654 0.166983 0.127370
H3    H     H_    0.016726 0.214731 0.809146 0.170496
H4    H     H_    0.645959 0.175341 0.830390 0.126547
H5    H     H_    0.370845 0.162638 0.166969 0.127875
H6    H     H_    0.544034 0.242037 0.833053 0.123065
H7    H     H_    0.459364 0.240338 0.166431 0.123624
H8    H     H_    0.041491 0.741536 0.832687 0.123300
H9    H     H_    0.959364 0.740523 0.166592 0.123209
H10   H     H_    0.812533 0.309233 0.208273 0.200033
H11   H     H_    0.183487 0.303383 0.798345 0.202705
H12   H     H_    0.313902 0.808269 0.202360 0.204644
H13   H     H_    0.672140 0.333515 0.174078 0.105260
H14   H     H_    0.687141 0.802437 0.791118 0.198062
H15   H     H_    0.798893 0.253419 0.282842 0.177082
H16   H     H_    0.200374 0.253301 0.718167 0.175201
H17   H     H_    0.300476 0.754948 0.281314 0.174937
H18   H     H_    0.706758 0.750153 0.716699 0.177449
H19   H     H_    0.403902 0.697449 0.272718 0.111334
H20   H     H_    0.604826 0.688827 0.723461 0.116439
H21   H     H_    0.905752 0.199086 0.274285 0.111311
H22   H     H_    0.101413 0.189921 0.725670 0.115973
H23   H     H_    0.373193 0.582629 0.485084 0.121816
H24   H     H_    0.825457 0.833879 0.825082 0.103080
H25   H     H_    0.384840 0.581988 0.330954 0.122874
H26   H     H_    0.872889 0.082453 0.484653 0.122889
H27   H     H_    0.881757 0.081694 0.328486 0.123393
H28   H     H_    0.436025 0.359815 0.373984 0.189966
H29   H     H_    0.532246 0.405241 0.603310 0.204582
H30   H     H_    0.937584 0.859838 0.374770 0.189453
H31   H     H_    0.034665 0.906232 0.603562 0.204807
H32   H     H_    0.543926 0.404945 0.454042 0.200724
H33   H     H_    0.424314 0.360134 0.524204 0.186436
H34   H     H_    0.044502 0.905814 0.452883 0.201344
H35   H     H_    0.174979 0.833960 0.174591 0.102965
H36   H     H_    0.927652 0.860334 0.526268 0.186316
H37   H     H_    0.438592 0.642063 0.173622 0.084790
H38   H     H_    0.571144 0.626534 0.822595 0.096524
H39   H     H_    0.946624 0.147004 0.175228 0.083888
H40   H     H_    0.073728 0.124263 0.823744 0.097033
H41   H     H_    0.468868 0.409614 0.254536 0.109935
H42   H     H_    0.430983 0.411195 0.671459 0.097552
H43   H     H_    0.967856 0.909627 0.253247 0.109911
H44   H     H_    0.931906 0.911138 0.671707 0.098902
H45   H     H_    0.238271 0.585791 0.664563 0.088430
H46   H     H_    0.960978 0.532323 0.435404 0.130633
H47   H     H_    0.793813 0.585542 0.303947 0.086797
H48   H     H_    0.706407 0.085654 0.702145 0.086729
H49   H     H_    0.262258 0.085655 0.335997 0.090812
H50   H     H_    0.498302 0.583963 0.295520 0.081550
H51   H     H_    0.433419 0.585851 0.666667 0.080257
H52   H     H_    0.991628 0.084440 0.288594 0.081037
H53   H     H_    0.933680 0.085847 0.666667 0.082269
H54   H     H_    0.239940 0.411073 0.670317 0.078579
H55   H     H_    0.787796 0.409823 0.279455 0.090231
H56   H     H_    0.711280 0.909612 0.721735 0.089989
H57   H     H_    0.104524 0.538797 0.475776 0.130888
H58   H     H_    0.259677 0.910920 0.328903 0.080435
H59   H     H_    0.257762 0.637103 0.820666 0.094475
H60   H     H_    0.738724 0.643467 0.173961 0.087349
H61   H     H_    0.770221 0.149058 0.823670 0.085932
H62   H     H_    0.246983 0.132939 0.177739 0.095662
H63   H     H_    0.489105 0.332177 0.173902 0.084162
H64   H     H_    0.512662 0.333687 0.824553 0.083290
H65   H     H_    0.989962 0.832062 0.173895 0.082849
H66   H     H_    0.012670 0.833699 0.824504 0.084134
H67   H     H_    0.942911 0.422836 0.320864 0.121143
H68   H     H_    0.395827 0.038367 0.524799 0.130643
H69   H     H_    0.105922 0.413129 0.496744 0.115383
H70   H     H_    0.392577 0.912745 0.502386 0.115447
H71   H     H_    0.555151 0.921484 0.678599 0.121590
H72   H     H_    0.484464 0.860703 0.146671 0.267713
H73   H     H_    0.521240 0.806275 0.097472 0.271467
H74   H     H_    0.425116 0.851064 0.000989 0.264345
H75   H     H_    0.361865 0.762014 0.007456 0.198261
H76   H     H_    0.328043 0.815202 0.060743 0.204452
H77   H     H_    0.476920 0.787095 0.256082 0.190916
H78   H     H_    0.488035 0.729845 0.192124 0.166649
H79   H     H_    0.540023 0.032747 0.570009 0.130261
H80   H     H_    0.503883 0.847302 0.830923 0.265907
H81   H     H_    0.475105 0.793305 0.890653 0.273475
H82   H     H_    0.565973 0.843347 0.977838 0.263199
H83   H     H_    0.636640 0.754737 0.982204 0.198724
H84   H     H_    0.667033 0.808784 0.926149 0.201962
H85   H     H_    0.522696 0.775054 0.731864 0.186383
H86   H     H_    0.515628 0.717476 0.799255 0.167917
H87   H     H_    0.976104 0.372423 0.164455 0.264505
H88   H     H_    0.030192 0.322997 0.127354 0.268224
H89   H     H_    0.931059 0.363422 0.022079 0.264729
H90   H     H_    0.136962 0.669696 0.830482 0.127345
H91   H     H_    0.874569 0.270996 0.018991 0.195276
H92   H     H_    0.828185 0.318549 0.067647 0.205695
H93   H     H_    0.978537 0.291129 0.267424 0.189835
H94   H     H_    0.992723 0.236289 0.200855 0.164329
H95   H     H_    0.998070 0.338616 0.852420 0.266018
H96   H     H_    0.984513 0.281607 0.920431 0.272023
H97   H     H_    0.071213 0.334792 0.000188 0.259518
H98   H     H_    0.145923 0.249849 0.994144 0.201115
H99   H     H_    0.164969 0.307744 0.934815 0.200549
H100  H     H_    0.021234 0.274216 0.744339 0.186989
N1    N     N_R   0.395410 0.396350 0.944340 -0.037157
N2    N     N_R   0.474920 0.471030 0.794350 -0.038082
N3    N     N_R   0.025080 0.971030 0.205650 -0.040323
N4    N     N_R   0.974920 0.971030 0.794350 -0.038620
N5    N     N_R   0.320260 0.527820 0.794570 -0.037899
N6    N     N_R   0.679740 0.527820 0.205430 -0.040073
N7    N     N_R   0.820260 0.027820 0.794570 -0.039226
N8    N     N_R   0.179740 0.027820 0.205430 -0.039113
N9    N     N_R   0.524590 0.527840 0.205200 -0.039839
N10   N     N_R   0.475410 0.527840 0.794800 -0.037626
N11   N     N_R   0.024590 0.027840 0.205200 -0.038931
N12   N     N_R   0.604590 0.396350 0.055660 -0.036876
N13   N     N_R   0.975410 0.027840 0.794800 -0.038877
N14   N     N_R   0.320750 0.471000 0.795020 -0.042999
N15   N     N_R   0.679250 0.471000 0.204980 -0.044216
N16   N     N_R   0.820750 0.971000 0.795020 -0.043402
N17   N     N_R   0.179250 0.971000 0.204980 -0.043773
N18   N     N_R   0.393620 0.602490 0.942710 -0.039764
N19   N     N_R   0.606380 0.602490 0.057290 -0.039299
N20   N     N_R   0.893620 0.102490 0.942710 -0.037930
N21   N     N_R   0.106380 0.102490 0.057290 -0.040341
N22   N     N_R   0.451720 0.396350 0.057510 -0.036357
N23   N     N_R   0.895410 0.896350 0.944340 -0.035925
N24   N     N_R   0.548280 0.396350 0.942490 -0.037239
N25   N     N_R   0.951720 0.896350 0.057510 -0.036120
N26   N     N_R   0.048280 0.896350 0.942490 -0.037447
N27   N     N_R   0.104590 0.896350 0.055660 -0.037852
N28   N     N_R   0.449930 0.602500 0.055880 -0.040862
N29   N     N_R   0.550070 0.602500 0.944120 -0.042602
N30   N     N_R   0.949930 0.102500 0.055880 -0.039288
N31   N     N_R   0.050070 0.102500 0.944120 -0.043570
N32   N     N_R   0.525080 0.471030 0.205650 -0.040836
Ni1   Ni    Ni4+2 0.435420 0.434270 0.870230 0.203622
Ni2   Ni    Ni4+2 0.564580 0.434270 0.129770 0.206254
Ni3   Ni    Ni4+2 0.935420 0.934270 0.870230 0.205008
Ni4   Ni    Ni4+2 0.064580 0.934270 0.129770 0.204723
Ni5   Ni    Ni4+2 0.563430 0.564580 0.128740 0.210642
Ni6   Ni    Ni4+2 0.436570 0.564580 0.871260 0.205771
Ni7   Ni    Ni4+2 0.063430 0.064580 0.128740 0.209017
Ni8   Ni    Ni4+2 0.936570 0.064580 0.871260 0.207158

loop_
_geom_bond_atom_site_label_1
_geom_bond_atom_site_label_2
_ccdc_geom_bond_type
C45   H2    S    
C34   H79   S    
C84   C112  A    
C94   H43   S    
C107  N15   A    
C24   C99   A    
C67   H16   S    
C7    C55   S    
C90   H34   S    
C16   H91   S    
C91   H31   S    
C98   H47   S    
C92   N32   A    
C57   C62   A    
C47   C49   A    
C107  H55   S    
C77   C78   A    
C78   C90   S    
C89   H29   S    
C15   C72   S    
C14   H82   S    
C26   C27   S    
C69   H18   S    
C22   C32   S    
N4    N13   A    
N26   Ni3   S    
C64   C68   S    
C4    C114  A    
C68   H17   S    
C1    N1    A    
N12   N24   A    
C57   N28   A    
C3    C7    A    
C48   H6    S    
C91   H36   S    
C11   C71   S    
C47   H5    S    
C46   C48   A    
C54   C63   A    
C100  N8    A    
C103  N11   A    
C56   C65   A    
C49   H7    S    
C80   C106  S    
C102  N10   A    
N21   N31   A    
C17   H87   S    
C18   C19   S    
C42   C46   A    
C20   H95   S    
C37   C42   A    
C69   C71   S    
C99   N7    A    
C44   C50   A    
C2    C79   S    
C58   H38   S    
N5    Ni6   S    
C21   C104  A    
C53   C61   A    
N7    Ni8   S    
C66   C72   S    
C19   C20   S    
C35   C70   S    
C97   N5    A    
C16   C17   S    
N5    N14   A    
C10   H72   S    
C8    H78   S    
C35   C64   A    
C24   C108  A    
C13   C103  A    
C9    H76   S    
C43   C47   A    
C9    C10   S    
N18   Ni6   S    
N12   Ni2   S    
C81   C86   A    
C36   C71   S    
C25   C109  A    
C114  N22   A    
C68   H12   S    
N31   Ni8   S    
C109  H58   S    
N9    N32   A    
C113  N21   A    
C113  H62   S    
C31   H46   S    
C51   H35   S    
N24   Ni1   S    
C18   C74   S    
C22   C97   A    
C110  H59   S    
C5    C115  A    
C105  N14   A    
C102  H51   S    
C36   C41   A    
C101  H50   S    
N25   Ni4   S    
N1    Ni1   S    
C18   H100  S    
C104  N13   A    
C61   C66   S    
C83   H23   S    
N32   Ni2   S    
C73   C111  A    
N1    N22   A    
C5    C29   A    
C58   N29   A    
C55   C64   A    
C88   H32   S    
C48   C53   A    
C14   H81   S    
C63   C67   S    
C89   H33   S    
C104  H53   S    
C10   H73   S    
C105  H54   S    
C30   C34   D    
N23   Ni3   S    
C111  H60   S    
N20   N30   A    
C50   H8    S    
C59   C84   A    
N19   Ni5   S    
C85   H25   S    
C71   H20   S    
C67   C74   S    
C59   H39   S    
C36   C65   A    
C8    C9    S    
N11   Ni7   S    
C45   C52   A    
C96   N4    A    
C57   H37   S    
C13   C82   S    
C92   H41   S    
C24   C34   S    
C76   C88   S    
C66   H10   S    
C93   N2    A    
C11   H86   S    
C23   C31   S    
N28   Ni5   S    
C17   H88   S    
C35   C39   A    
C75   C76   A    
C60   H40   S    
C87   H27   S    
C80   C85   A    
C28   H70   S    
C74   H22   S    
C78   C82   A    
C25   C100  A    
C43   C95   S    
C62   C110  A    
C88   H28   S    
C77   C81   A    
C11   C12   S    
C23   C107  A    
C116  H65   S    
C33   H68   S    
C44   H90   S    
C82   C87   A    
C12   H84   S    
C42   C84   S    
C8    H77   S    
N23   N25   A    
N16   Ni3   S    
C10   H74   S    
N20   Ni8   S    
C6    C116  A    
C1    H1    S    
C3    N26   A    
C92   C106  A    
C72   H21   S    
C83   C85   A    
C12   C14   S    
N6    N15   A    
C97   H45   S    
C111  N19   A    
C108  H56   S    
N8    N17   A    
C70   H19   S    
N2    Ni1   S    
C6    C40   A    
N4    Ni3   S    
N14   Ni1   S    
C67   H11   S    
C90   H30   S    
N13   Ni8   S    
N7    N16   A    
C86   H26   S    
C66   H15   S    
C38   C74   S    
N6    Ni5   S    
C69   H14   S    
C101  C106  A    
C65   C69   S    
C39   C62   S    
C14   H80   S    
C116  N25   A    
C77   C91   S    
C21   C81   S    
C41   C45   A    
N27   Ni4   S    
C49   C54   A    
C30   H71   S    
C4    C54   S    
C27   C32   D    
C86   C87   A    
C29   H13   S    
C26   C31   D    
N21   Ni7   S    
C2    C93   A    
C51   N27   A    
C76   C80   A    
C6    C56   S    
C16   H92   S    
C46   H4    S    
C108  N16   A    
C28   C33   D    
C115  H64   S    
C37   C61   A    
C52   H9    S    
C39   C44   A    
C21   C96   A    
C58   C73   A    
C40   N23   A    
C22   C105  A    
N29   Ni6   S    
C8    C70   S    
C50   C55   A    
C13   C94   A    
N3    Ni4   S    
C1    C4    A    
C98   N6    A    
C20   H97   S    
C19   H98   S    
C17   H89   S    
C96   H44   S    
C5    C53   S    
C7    C51   A    
C38   C43   A    
C15   H93   S    
C112  N20   A    
C26   H67   S    
C79   C83   A    
C90   C91   S    
C115  N24   A    
C32   H57   S    
C103  H52   S    
C95   C113  A    
C27   H69   S    
C15   C16   S    
N26   N27   A    
C28   C30   S    
C94   N3    A    
C12   H83   S    
N19   N29   A    
C40   H24   S    
C59   N30   A    
C19   H99   S    
C20   H96   S    
C93   H42   S    
C3    H66   S    
C75   C89   S    
C41   C73   S    
C99   H48   S    
C60   C95   A    
C110  N18   A    
N10   Ni6   S    
C23   C98   A    
C88   C89   S    
N8    Ni7   S    
C60   N31   A    
N9    Ni5   S    
C114  H63   S    
N30   Ni7   S    
C37   C72   S    
N18   N28   A    
C15   H94   S    
C38   C63   A    
C68   C70   S    
C2    C102  A    
C100  H49   S    
C101  N9    A    
C11   H85   S    
C29   N12   A    
N3    N11   A    
C9    H75   S    
N15   Ni2   S    
C75   C79   A    
C18   H3    S    
N2    N10   A    
N22   Ni2   S    
C52   C56   A    
N17   Ni4   S    
C25   C33   S    
C112  H61   S    
C109  N17   A    
