data_mof_unit_pretest_1767.cif
_audit_creation_date              2012-12-10T20:47:22-0500
_audit_creation_method            fapswitch 2.2
_symmetry_space_group_name_H-M    P1
_symmetry_Int_Tables_number       1
_space_group_crystal_system       triclinic
_cell_length_a                    17.877418
_cell_length_b                    19.216217
_cell_length_c                    19.219559
_cell_angle_alpha                 94.799415
_cell_angle_beta                  99.119622
_cell_angle_gamma                 103.45125
_cell_volume                      6290.17732419

loop_
_atom_site_label
_atom_site_type_symbol
_atom_type_description
_atom_site_fract_x
_atom_site_fract_y
_atom_site_fract_z
_atom_type_partial_charge
C1    C     C_R   0.492076 0.506611 0.688222 0.508063
C2    C     C_R   0.919879 0.428497 0.448651 -0.130198
C3    C     C_R   0.959344 0.390055 0.409740 -0.134847
C4    C     C_R   0.507649 0.493846 0.311950 0.507573
C5    C     C_R   0.040723 0.408566 0.421395 0.053076
C6    C     C_R   0.083842 0.464627 0.475894 0.039131
C7    C     C_R   0.079525 0.370442 0.379879 -0.127381
C8    C     C_R   0.160850 0.387441 0.391531 -0.126572
C9    C     C_R   0.166068 0.481979 0.485154 -0.118349
C10   C     C_R   0.507508 0.489397 0.235190 0.031126
C11   C     C_R   0.473277 0.535040 0.194487 -0.150614
C12   C     C_R   0.836333 0.591567 0.626328 -0.199765
C13   C     C_R   0.470838 0.529818 0.121460 -0.091646
C14   C     C_R   0.502505 0.478404 0.087644 0.224377
C15   C     C_R   0.535648 0.432280 0.128158 -0.110529
C16   C     C_R   0.491679 0.309034 0.490843 0.501406
C17   C     C_R   0.538972 0.438109 0.201532 -0.144249
C18   C     C_R   0.460743 0.453074 0.867824 -0.091213
C19   C     C_R   0.458933 0.449033 0.794715 -0.151918
C20   C     C_R   0.493204 0.519408 0.911481 0.224837
C21   C     C_R   0.490250 0.510790 0.764514 0.030409
C22   C     C_R   0.521399 0.576942 0.808045 -0.146417
C23   C     C_R   0.841180 0.529721 0.512552 0.220677
C24   C     C_R   0.521817 0.581217 0.880790 -0.109295
C25   C     C_R   0.508466 0.768212 0.514963 0.028877
C26   C     C_R   0.471986 0.795451 0.456955 -0.150556
C27   C     C_R   0.469508 0.867481 0.462023 -0.091260
C28   C     C_R   0.508051 0.691322 0.509541 0.511131
C29   C     C_R   0.503535 0.913918 0.525598 0.224822
C30   C     C_R   0.538996 0.886468 0.583750 -0.109901
C31   C     C_R   0.542231 0.814298 0.578408 -0.147531
C32   C     C_R   0.463570 0.118415 0.536266 -0.091430
C33   C     C_R   0.461595 0.190813 0.538790 -0.151539
C34   C     C_R   0.920234 0.529298 0.537538 -0.025592
C35   C     C_R   0.492207 0.086099 0.480934 0.224244
C36   C     C_R   0.489066 0.231847 0.486798 0.032540
C37   C     C_R   0.516379 0.199073 0.431252 -0.144711
C38   C     C_R   0.516868 0.126561 0.427984 -0.110128
C39   C     C_R   0.288364 0.459225 0.459209 0.498487
C40   C     C_R   0.712388 0.540331 0.539798 0.545976
C41   C     C_R   0.797923 0.554489 0.559695 0.065632
C42   C     C_R   0.203710 0.443237 0.443982 0.041527
C43   C     C_R   0.916809 0.602656 0.646450 -0.114226
C44   C     C_R   0.959540 0.571522 0.602891 0.062641
C45   C     C_R   0.960584 0.487521 0.500136 0.006592
C46   C     C_R   0.043198 0.501289 0.518633 0.000646
C47   C     C_R   0.081838 0.548538 0.580883 -0.124040
C48   C     C_R   0.040465 0.581524 0.624176 0.246394
H1    H     H_    0.046909 0.327147 0.338769 0.111244
H2    H     H_    0.440139 0.215032 0.582011 0.133086
H3    H     H_    0.202759 0.525872 0.523158 0.095135
H4    H     H_    0.442397 0.087754 0.577045 0.137255
H5    H     H_    0.564791 0.921318 0.633123 0.122404
H6    H     H_    0.570005 0.794341 0.624143 0.135547
H7    H     H_    0.537126 0.229478 0.390114 0.135235
H8    H     H_    0.440255 0.886545 0.416451 0.138027
H9    H     H_    0.537899 0.102010 0.384659 0.121796
H10   H     H_    0.445100 0.761017 0.407531 0.138099
H11   H     H_    0.190362 0.357034 0.359950 0.109288
H12   H     H_    0.434379 0.397518 0.762053 0.133755
H13   H     H_    0.925869 0.345616 0.370158 0.112011
H14   H     H_    0.944893 0.633652 0.697398 0.185248
H15   H     H_    0.804234 0.612731 0.662759 0.145108
H16   H     H_    0.143710 0.557357 0.599698 0.092501
H17   H     H_    0.856908 0.409443 0.439498 0.172514
H18   H     H_    0.134811 0.625987 0.694442 0.325245
H19   H     H_    0.848466 0.526567 0.412995 0.323765
H20   H     H_    0.436498 0.404713 0.890082 0.136855
H21   H     H_    0.559558 0.392103 0.102795 0.122299
H22   H     H_    0.564994 0.401781 0.231685 0.139377
H23   H     H_    0.545147 0.625484 0.785790 0.134529
H24   H     H_    0.443405 0.565388 0.091460 0.138400
H25   H     H_    0.545878 0.632662 0.913676 0.122617
H26   H     H_    0.448262 0.574829 0.219060 0.138095
N1    N     N_2   0.500522 0.470706 0.013230 -0.246762
N2    N     N_2   0.496169 0.526585 0.985886 -0.249011
N3    N     N_2   0.501951 0.987712 0.532995 -0.245856
N4    N     N_2   0.494818 0.012764 0.475176 -0.250101
O1    O     O_3   0.500000 0.500000 0.500000 -0.442894
O2    O     O_R   0.321500 0.427480 0.506110 -0.536368
O3    O     O_R   0.674970 0.575130 0.575140 -0.563913
O4    O     O_R   0.328550 0.507430 0.428780 -0.538880
O5    O     O_R   0.674980 0.489960 0.489960 -0.475505
O6    O     O_3   0.078216 0.624252 0.687221 -0.710421
O7    O     O_3   0.806955 0.513055 0.441575 -0.692598
O8    O     O_R   0.540930 0.349770 0.460420 -0.546445
O9    O     O_R   0.550820 0.667300 0.556650 -0.545178
O10   O     O_R   0.445640 0.455160 0.644460 -0.541721
O11   O     O_R   0.462610 0.527770 0.338470 -0.549072
O12   O     O_R   0.540910 0.554790 0.665460 -0.548842
O13   O     O_R   0.550840 0.462270 0.351610 -0.535234
O14   O     O_R   0.445650 0.335310 0.524600 -0.545981
O15   O     O_R   0.462600 0.647620 0.458330 -0.543512
Zn1   Zn    Zn3+2 0.565550 0.451340 0.451340 0.965727
Zn2   Zn    Zn3+2 0.429430 0.430690 0.543050 0.935488
Zn3   Zn    Zn3+2 0.439490 0.544930 0.432570 0.937037
Zn4   Zn    Zn3+2 0.565540 0.573040 0.573050 0.934328

loop_
_geom_bond_atom_site_label_1
_geom_bond_atom_site_label_2
_ccdc_geom_bond_type
C25   C31   A    
C1    C21   S    
C1    O12   A    
C27   C29   A    
C9    H3    S    
N1    N2    D    
C2    H17   S    
C6    C9    A    
C7    C8    A    
N3    N4    D    
C25   C28   S    
C26   C27   A    
C37   C38   A    
C36   C37   A    
C19   C21   A    
C8    C42   A    
C12   C43   A    
C8    H11   S    
C30   C31   A    
C24   H25   S    
C10   C17   A    
C18   H20   S    
C33   C36   A    
C20   N2    S    
C18   C19   A    
C32   H4    S    
O8    Zn1   S    
C20   C24   A    
O12   Zn4   S    
C4    O13   A    
C1    O10   A    
O10   Zn2   S    
C17   H22   S    
C13   C14   A    
C16   O8    A    
C40   O5    A    
C39   C42   S    
C3    H13   S    
C2    C45   A    
C15   H21   S    
C30   H5    S    
H19   O7    S    
O4    Zn3   S    
C32   C35   A    
C35   C38   A    
C34   C44   A    
C7    H1    S    
O1    Zn1   S    
C47   H16   S    
C5    C7    A    
C12   H15   S    
C27   H8    S    
C33   H2    S    
C45   C46   A    
O5    Zn1   S    
O14   Zn2   S    
C48   O6    S    
C28   O15   A    
C43   C44   A    
C39   O2    A    
O1    Zn2   S    
C29   C30   A    
C38   H9    S    
C47   C48   A    
C23   C34   A    
C28   O9    A    
C9    C42   A    
C34   C45   A    
O2    Zn2   S    
C26   H10   S    
C40   C41   S    
C16   O14   A    
O15   Zn3   S    
C22   C24   A    
C4    C10   S    
C22   H23   S    
C12   C41   A    
C4    O11   A    
C15   C17   A    
C46   C47   A    
C6    C46   A    
C40   O3    A    
O1    Zn4   S    
C39   O4    A    
C3    C5    A    
C11   H26   S    
C13   H24   S    
C19   H12   S    
C35   N4    S    
C23   C41   A    
C32   C33   A    
O11   Zn3   S    
C2    C3    A    
C25   C26   A    
O1    Zn3   S    
C14   N1    S    
O13   Zn1   S    
C11   C13   A    
C5    C6    A    
O3    Zn4   S    
C18   C20   A    
C31   H6    S    
C10   C11   A    
H18   O6    S    
C37   H7    S    
C29   N3    S    
C23   O7    S    
C14   C15   A    
C21   C22   A    
C16   C36   S    
C44   C48   A    
C43   H14   S    
O9    Zn4   S    
