data_mof_unit_pretest_1909.cif
_audit_creation_date              2012-12-10T17:15:38-0500
_audit_creation_method            fapswitch 2.2
_symmetry_space_group_name_H-M    P1
_symmetry_Int_Tables_number       1
_space_group_crystal_system       triclinic
_cell_length_a                    23.708952
_cell_length_b                    23.708953
_cell_length_c                    38.683374
_cell_angle_alpha                 90.000062
_cell_angle_beta                  90.000062
_cell_angle_gamma                 90.0
_cell_volume                      21744.4826741

loop_
_atom_site_label
_atom_site_type_symbol
_atom_type_description
_atom_site_fract_x
_atom_site_fract_y
_atom_site_fract_z
_atom_type_partial_charge
C1    C     C_R   0.500000 0.108204 0.500000 0.806603
C2    C     C_R   0.000000 0.500000 0.395685 -0.127916
C3    C     C_R   0.545482 0.023191 0.841312 -0.142835
C4    C     C_R   0.976803 0.454521 0.158688 -0.142836
C5    C     C_R   0.454525 0.023205 0.158689 -0.142838
C6    C     C_R   0.023198 0.545478 0.158688 -0.142836
C7    C     C_R   0.545475 0.976795 0.158689 -0.142837
C8    C     C_R   0.500000 0.000000 0.323161 -0.046338
C9    C     C_R   0.000000 0.500000 0.323161 -0.046338
C10   C     C_R   0.500000 1.000000 0.676840 -0.046339
C11   C     C_R   1.000000 0.500000 0.676839 -0.046339
C12   C     C_R   1.000000 0.500000 0.823160 -0.046337
C13   C     C_R   0.500000 1.000000 0.604315 -0.127921
C14   C     C_R   0.500000 1.000000 0.823161 -0.046339
C15   C     C_R   0.000000 0.500000 0.176840 -0.046338
C16   C     C_R   0.500000 0.000000 0.176840 -0.046335
C17   C     C_3   0.453669 0.097016 0.397749 -0.376543
C18   C     C_3   0.436192 0.148329 0.376295 -0.844078
C19   C     C_3   0.902992 0.453653 0.397749 -0.376535
C20   C     C_3   0.851681 0.436170 0.376294 -0.844084
C21   C     C_3   0.546331 0.902984 0.397749 -0.376542
C22   C     C_3   0.563808 0.851671 0.376294 -0.844076
C23   C     C_3   0.097008 0.546347 0.397749 -0.376535
C24   C     C_R   0.000000 0.500000 0.604315 -0.127918
C25   C     C_3   0.148319 0.563829 0.376294 -0.844084
C26   C     C_3   0.453637 0.902999 0.602252 -0.376526
C27   C     C_3   0.436150 0.851690 0.623706 -0.844090
C28   C     C_3   0.902996 0.546356 0.602252 -0.376535
C29   C     C_3   0.851687 0.563842 0.623706 -0.844094
C30   C     C_3   0.546363 0.097001 0.602252 -0.376528
C31   C     C_3   0.563851 0.148310 0.623707 -0.844091
C32   C     C_3   0.097004 0.453644 0.602252 -0.376533
C33   C     C_3   0.148313 0.436159 0.623706 -0.844093
C34   C     C_3   0.953641 0.597003 0.897748 -0.376527
C35   C     C_R   1.000000 0.500000 0.895685 -0.127919
C36   C     C_3   0.936155 0.648313 0.876294 -0.844090
C37   C     C_3   0.402989 0.953658 0.897749 -0.376539
C38   C     C_3   0.351678 0.936177 0.876294 -0.844082
C39   C     C_3   0.046359 0.402997 0.897748 -0.376528
C40   C     C_3   0.063844 0.351687 0.876294 -0.844090
C41   C     C_3   0.597011 0.046342 0.897749 -0.376539
C42   C     C_3   0.648322 0.063822 0.876294 -0.844081
C43   C     C_3   0.953644 0.402996 0.102251 -0.376530
C44   C     C_3   0.936159 0.351686 0.123706 -0.844087
C45   C     C_3   0.403002 0.046371 0.102252 -0.376520
C46   C     C_R   0.500000 1.000000 0.895685 -0.127915
C47   C     C_3   0.351693 0.063860 0.123707 -0.844092
C48   C     C_3   0.046356 0.597004 0.102252 -0.376532
C49   C     C_3   0.063841 0.648314 0.123706 -0.844087
C50   C     C_3   0.596998 0.953629 0.102252 -0.376520
C51   C     C_3   0.648307 0.936141 0.123707 -0.844093
C52   C     C_R   0.000000 0.500000 0.104315 -0.127919
C53   C     C_R   0.500000 0.000000 0.104315 -0.127924
C54   C     C_R   0.500000 0.000000 0.214946 0.430995
C55   C     C_R   0.000000 0.500000 0.214945 0.430994
C56   C     C_R   0.500000 1.000000 0.785055 0.430995
C57   C     C_R   0.891796 0.500000 0.500000 0.806604
C58   C     C_R   1.000000 0.500000 0.785055 0.430996
C59   C     C_R   1.000000 0.500000 0.714945 0.430996
C60   C     C_R   0.500000 1.000000 0.714945 0.430995
C61   C     C_R   0.000000 0.500000 0.285055 0.430994
C62   C     C_R   0.500000 0.000000 0.285055 0.430996
C63   C     C_R   0.392982 0.500000 0.500000 0.802918
C64   C     C_R   0.500000 0.392982 0.500000 0.802918
C65   C     C_R   0.607018 0.500000 0.500000 0.802917
C66   C     C_R   0.500000 0.607018 0.500000 0.802917
C67   C     C_R   0.892982 0.000000 1.000000 0.802918
C68   C     C_R   0.500000 0.891796 0.500000 0.806604
C69   C     C_R   0.000000 0.892982 1.000000 0.802918
C70   C     C_R   0.107018 0.000000 0.000000 0.802917
C71   C     C_R   0.000000 0.107018 0.000000 0.802917
C72   C     C_R   0.500000 0.000000 0.433621 0.771892
C73   C     C_R   1.000000 0.500000 0.433621 0.771892
C74   C     C_R   0.500000 1.000000 0.566379 0.771892
C75   C     C_R   1.000000 0.500000 0.566379 0.771892
C76   C     C_R   1.000000 0.500000 0.933621 0.771895
C77   C     C_R   0.500000 1.000000 0.933621 0.771891
C78   C     C_R   1.000000 0.500000 0.066379 0.771892
C79   C     C_R   0.108204 0.500000 0.500000 0.806604
C80   C     C_R   0.500000 0.000000 0.066379 0.771894
C81   C     C_1   0.500000 0.169315 0.500000 -0.184732
C82   C     C_1   0.830685 0.500000 0.500000 -0.184732
C83   C     C_1   0.500000 0.830685 0.500000 -0.184732
C84   C     C_1   0.169315 0.500000 0.500000 -0.184732
C85   C     C_1   0.000000 0.669314 1.000000 -0.184732
C86   C     C_1   0.330685 1.000000 1.000000 -0.184732
C87   C     C_1   1.000000 0.330685 0.000000 -0.184732
C88   C     C_1   0.669315 0.000000 1.000000 -0.184732
C89   C     C_1   0.500000 0.220515 0.500000 0.009531
C90   C     C_R   1.000000 0.608204 0.000000 0.806605
C91   C     C_1   0.779485 0.500000 0.500000 0.009531
C92   C     C_1   0.500000 0.779485 0.500000 0.009531
C93   C     C_1   0.220515 0.500000 0.500000 0.009531
C94   C     C_1   0.000000 0.720515 1.000000 0.009531
C95   C     C_1   0.279485 1.000000 1.000000 0.009531
C96   C     C_1   1.000000 0.279485 0.000000 0.009531
C97   C     C_1   0.720515 0.000000 1.000000 0.009531
C98   C     C_1   0.500000 0.280642 0.500000 0.008360
C99   C     C_1   0.719358 0.500000 0.500000 0.008360
C100  C     C_1   0.500000 0.719358 0.500000 0.008359
C101  C     C_R   0.391796 1.000000 1.000000 0.806605
C102  C     C_1   0.280642 0.500000 0.500000 0.008360
C103  C     C_1   0.000000 0.780642 1.000000 0.008360
C104  C     C_1   0.219358 0.000000 0.000000 0.008360
C105  C     C_1   1.000000 0.219358 0.000000 0.008360
C106  C     C_1   0.780642 0.000000 1.000000 0.008360
C107  C     C_1   0.500000 0.331850 0.500000 -0.169737
C108  C     C_1   0.668150 0.500000 0.500000 -0.169737
C109  C     C_1   0.500000 0.668150 0.500000 -0.169737
C110  C     C_1   0.331850 0.500000 0.500000 -0.169737
C111  C     C_1   0.000000 0.831850 1.000000 -0.169737
C112  C     C_R   0.000000 0.391796 0.000000 0.806605
C113  C     C_1   0.168150 0.000000 0.000000 -0.169737
C114  C     C_1   0.000000 0.168150 0.000000 -0.169737
C115  C     C_1   0.831850 0.000000 1.000000 -0.169737
C116  C     C_R   0.476881 0.046644 0.377612 0.116246
C117  C     C_R   0.953360 0.476873 0.377611 0.116246
C118  C     C_R   0.523119 0.953355 0.377612 0.116247
C119  C     C_R   0.046641 0.523126 0.377612 0.116245
C120  C     C_R   0.476866 0.953363 0.622389 0.116245
C121  C     C_R   0.953362 0.523131 0.622388 0.116246
C122  C     C_R   0.523134 0.046637 0.622389 0.116244
C123  C     C_R   0.608204 0.000000 1.000000 0.806605
C124  C     C_R   0.046638 0.476869 0.622388 0.116246
C125  C     C_R   0.976867 0.546638 0.877611 0.116244
C126  C     C_R   0.453358 0.976875 0.877612 0.116247
C127  C     C_R   0.023132 0.453362 0.877611 0.116244
C128  C     C_R   0.546642 0.023124 0.877612 0.116245
C129  C     C_R   0.976869 0.453361 0.122388 0.116245
C130  C     C_R   0.453365 0.023138 0.122389 0.116243
C131  C     C_R   0.023131 0.546638 0.122388 0.116245
C132  C     C_R   0.546635 0.976862 0.122389 0.116243
C133  C     C_R   0.476814 0.045485 0.341312 -0.142834
C134  C     C_R   0.500000 0.000000 0.395686 -0.127912
C135  C     C_R   0.954519 0.476806 0.341312 -0.142837
C136  C     C_R   0.523186 0.954515 0.341312 -0.142835
C137  C     C_R   0.045481 0.523193 0.341312 -0.142835
C138  C     C_R   0.476799 0.954523 0.658688 -0.142837
C139  C     C_R   0.954521 0.523197 0.658688 -0.142836
C140  C     C_R   0.523201 0.045477 0.658688 -0.142836
C141  C     C_R   0.045478 0.476803 0.658688 -0.142836
C142  C     C_R   0.976800 0.545478 0.841312 -0.142837
C143  C     C_R   0.454518 0.976808 0.841312 -0.142836
C144  C     C_R   0.023199 0.454522 0.841312 -0.142837
Cu1   Cu    Cu3+1 0.555710 0.000000 0.500000 0.950377
Cu2   Cu    Cu3+1 0.500000 0.500000 0.534110 0.976646
Cu3   Cu    Cu3+1 0.000000 0.000000 0.965890 0.976645
Cu4   Cu    Cu3+1 0.000000 0.000000 0.034110 0.976646
Cu5   Cu    Cu3+1 0.000000 0.555710 0.500000 0.950376
Cu6   Cu    Cu3+1 0.444290 0.000000 0.500000 0.950377
Cu7   Cu    Cu3+1 1.000000 0.444290 0.500000 0.950376
Cu8   Cu    Cu3+1 0.055710 0.500000 0.000000 0.950374
Cu9   Cu    Cu3+1 0.500000 0.055710 0.000000 0.950375
Cu10  Cu    Cu3+1 0.944290 0.500000 0.000000 0.950375
Cu11  Cu    Cu3+1 0.500000 0.944290 0.000000 0.950375
Cu12  Cu    Cu3+1 0.500000 0.500000 0.465890 0.976645
H1    H     H_    0.459402 0.080224 0.326749 0.169866
H2    H     H_    0.419781 0.959392 0.826749 0.169866
H3    H     H_    0.040622 0.419788 0.826749 0.169867
H4    H     H_    0.580219 0.040608 0.826749 0.169866
H5    H     H_    0.959381 0.419787 0.173251 0.169867
H6    H     H_    0.419793 0.040633 0.173251 0.169866
H7    H     H_    0.040619 0.580213 0.173251 0.169866
H8    H     H_    0.580207 0.959367 0.173251 0.169867
H9    H     H_    0.472320 0.163935 0.360712 0.256598
H10   H     H_    0.400111 0.137677 0.359186 0.253560
H11   H     H_    0.422578 0.182747 0.393892 0.250681
H12   H     H_    0.919783 0.459388 0.326749 0.169866
H13   H     H_    0.416315 0.083130 0.412841 0.223760
H14   H     H_    0.486409 0.111456 0.416329 0.194585
H15   H     H_    0.836071 0.472297 0.360712 0.256599
H16   H     H_    0.862337 0.400091 0.359184 0.253559
H17   H     H_    0.817264 0.422552 0.393891 0.250681
H18   H     H_    0.916883 0.416299 0.412839 0.223764
H19   H     H_    0.888548 0.486390 0.416330 0.194585
H20   H     H_    0.527679 0.836065 0.360712 0.256598
H21   H     H_    0.599889 0.862323 0.359185 0.253559
H22   H     H_    0.577421 0.817252 0.393892 0.250681
H23   H     H_    0.540598 0.919776 0.326749 0.169865
H24   H     H_    0.583685 0.916870 0.412840 0.223760
H25   H     H_    0.513591 0.888544 0.416329 0.194585
H26   H     H_    0.163930 0.527702 0.360712 0.256599
H27   H     H_    0.137663 0.599908 0.359184 0.253559
H28   H     H_    0.182736 0.577448 0.393892 0.250681
H29   H     H_    0.083117 0.583700 0.412839 0.223764
H30   H     H_    0.111452 0.513610 0.416330 0.194585
H31   H     H_    0.472276 0.836075 0.639288 0.256601
H32   H     H_    0.400073 0.862350 0.640817 0.253559
H33   H     H_    0.422526 0.817275 0.606109 0.250681
H34   H     H_    0.080217 0.540612 0.326749 0.169866
H35   H     H_    0.416284 0.916896 0.587163 0.223768
H36   H     H_    0.486370 0.888552 0.583669 0.194585
H37   H     H_    0.836073 0.527716 0.639288 0.256601
H38   H     H_    0.862346 0.599919 0.640816 0.253560
H39   H     H_    0.817272 0.577463 0.606109 0.250684
H40   H     H_    0.916891 0.583708 0.587162 0.223768
H41   H     H_    0.888550 0.513621 0.583670 0.194586
H42   H     H_    0.527725 0.163925 0.639288 0.256601
H43   H     H_    0.599927 0.137650 0.640817 0.253559
H44   H     H_    0.577474 0.182724 0.606109 0.250682
H45   H     H_    0.459375 0.919790 0.673251 0.169867
H46   H     H_    0.583716 0.083104 0.587163 0.223768
H47   H     H_    0.513630 0.111448 0.583670 0.194585
H48   H     H_    0.163926 0.472285 0.639288 0.256601
H49   H     H_    0.137655 0.400081 0.640816 0.253560
H50   H     H_    0.182729 0.422538 0.606109 0.250683
H51   H     H_    0.083110 0.416292 0.587162 0.223767
H52   H     H_    0.111450 0.486380 0.583670 0.194585
H53   H     H_    0.972281 0.663926 0.860712 0.256601
H54   H     H_    0.900077 0.637654 0.859184 0.253559
H55   H     H_    0.922534 0.682728 0.893891 0.250682
H56   H     H_    0.919787 0.540619 0.673251 0.169868
H57   H     H_    0.916288 0.583108 0.912838 0.223766
H58   H     H_    0.986375 0.611450 0.916330 0.194585
H59   H     H_    0.336069 0.972305 0.860711 0.256599
H60   H     H_    0.362333 0.900098 0.859185 0.253560
H61   H     H_    0.317261 0.922561 0.893891 0.250681
H62   H     H_    0.416879 0.916304 0.912839 0.223763
H63   H     H_    0.388547 0.986396 0.916329 0.194585
H64   H     H_    0.027718 0.336074 0.860712 0.256601
H65   H     H_    0.099922 0.362345 0.859183 0.253559
H66   H     H_    0.077466 0.317271 0.893891 0.250682
H67   H     H_    0.540625 0.080210 0.673251 0.169867
H68   H     H_    0.083712 0.416892 0.912837 0.223766
H69   H     H_    0.013625 0.388550 0.916330 0.194585
H70   H     H_    0.663931 0.027695 0.860712 0.256599
H71   H     H_    0.637668 0.099902 0.859185 0.253559
H72   H     H_    0.682740 0.077439 0.893892 0.250681
H73   H     H_    0.583121 0.083696 0.912840 0.223763
H74   H     H_    0.611453 0.013604 0.916330 0.194585
H75   H     H_    0.972286 0.336073 0.139288 0.256600
H76   H     H_    0.900082 0.362344 0.140816 0.253559
H77   H     H_    0.922538 0.317270 0.106108 0.250681
H78   H     H_    0.080213 0.459381 0.673251 0.169868
H79   H     H_    0.916291 0.416890 0.087162 0.223766
H80   H     H_    0.986379 0.388550 0.083670 0.194584
H81   H     H_    0.336077 0.027734 0.139288 0.256601
H82   H     H_    0.362355 0.099936 0.140817 0.253557
H83   H     H_    0.317279 0.077484 0.106109 0.250682
H84   H     H_    0.416901 0.083723 0.087164 0.223768
H85   H     H_    0.388553 0.013638 0.083669 0.194585
H86   H     H_    0.027714 0.663927 0.139288 0.256600
H87   H     H_    0.099919 0.637656 0.140816 0.253559
H88   H     H_    0.077462 0.682730 0.106109 0.250681
H89   H     H_    0.959377 0.580212 0.826749 0.169867
H90   H     H_    0.083709 0.583110 0.087162 0.223766
H91   H     H_    0.013621 0.611450 0.083670 0.194585
H92   H     H_    0.663922 0.972266 0.139288 0.256602
H93   H     H_    0.637645 0.900064 0.140817 0.253558
H94   H     H_    0.682721 0.922516 0.106109 0.250681
H95   H     H_    0.583099 0.916277 0.087164 0.223768
H96   H     H_    0.611447 0.986361 0.083669 0.194584
N1    N     N_R   0.534785 0.965116 0.267189 -0.241226
N2    N     N_R   0.534880 0.034789 0.767189 -0.241226
N3    N     N_R   0.965206 0.534875 0.767188 -0.241227
N4    N     N_R   0.465121 0.965211 0.767188 -0.241226
N5    N     N_R   0.034794 0.534875 0.232812 -0.241226
N6    N     N_R   0.534868 0.965200 0.232812 -0.241226
N7    N     N_R   0.965206 0.465125 0.232812 -0.241226
N8    N     N_R   0.465131 0.034800 0.232812 -0.241226
N9    N     N_R   0.034878 0.534791 0.267188 -0.241226
N10   N     N_R   0.465215 0.034884 0.267189 -0.241226
N11   N     N_R   0.965122 0.465209 0.267188 -0.241225
N12   N     N_R   0.534796 0.034873 0.732812 -0.241226
N13   N     N_R   0.034877 0.465209 0.732811 -0.241227
N14   N     N_R   0.465204 0.965127 0.732812 -0.241226
N15   N     N_R   0.965123 0.534791 0.732811 -0.241227
N16   N     N_R   0.034793 0.465125 0.767188 -0.241227
O1    O     O_R   0.547030 0.081100 0.499900 -0.575032
O2    O     O_R   0.418900 0.047030 0.999900 -0.575032
O3    O     O_R   0.952970 0.418900 0.999900 -0.575030
O4    O     O_R   0.581100 0.952970 0.999900 -0.575032
O5    O     O_R   0.047030 0.418900 0.000100 -0.575031
O6    O     O_R   0.418900 0.952970 0.000100 -0.575029
O7    O     O_R   0.952970 0.581100 0.000100 -0.575031
O8    O     O_R   0.581100 0.047030 0.000100 -0.575029
O9    O     O_R   0.547030 0.999700 0.449980 -0.583455
O10   O     O_R   0.000300 0.547030 0.449980 -0.583457
O11   O     O_R   0.452970 0.000300 0.449980 -0.583456
O12   O     O_R   0.918900 0.547030 0.499900 -0.575031
O13   O     O_R   0.999700 0.452970 0.449980 -0.583457
O14   O     O_R   0.547030 0.000300 0.550020 -0.583460
O15   O     O_R   0.000300 0.452970 0.550020 -0.583459
O16   O     O_R   0.452970 0.999700 0.550020 -0.583459
O17   O     O_R   0.999700 0.547030 0.550020 -0.583459
O18   O     O_R   0.047030 0.499700 0.949980 -0.583459
O19   O     O_R   0.500300 0.047030 0.949980 -0.583457
O20   O     O_R   0.952970 0.500300 0.949980 -0.583459
O21   O     O_R   0.499700 0.952970 0.949980 -0.583457
O22   O     O_R   0.047030 0.500300 0.050020 -0.583459
O23   O     O_R   0.452970 0.918900 0.499900 -0.575032
O24   O     O_R   0.500300 0.952970 0.050020 -0.583460
O25   O     O_R   0.952970 0.499700 0.050020 -0.583459
O26   O     O_R   0.499700 0.047030 0.050020 -0.583461
O27   O     O_R   0.419660 0.499650 0.470270 -0.572270
O28   O     O_R   0.500350 0.419660 0.470270 -0.572270
O29   O     O_R   0.580340 0.500350 0.470270 -0.572270
O30   O     O_R   0.499650 0.580340 0.470270 -0.572270
O31   O     O_R   0.419660 0.500350 0.529730 -0.572269
O32   O     O_R   0.500350 0.580340 0.529730 -0.572270
O33   O     O_R   0.580340 0.499650 0.529730 -0.572270
O34   O     O_R   0.081100 0.452970 0.499900 -0.575031
O35   O     O_R   0.499650 0.419660 0.529730 -0.572269
O36   O     O_R   0.919660 0.999650 0.970270 -0.572270
O37   O     O_R   0.000350 0.919660 0.970270 -0.572270
O38   O     O_R   0.080340 0.000350 0.970270 -0.572270
O39   O     O_R   0.999650 0.080340 0.970270 -0.572269
O40   O     O_R   0.919660 0.000350 0.029730 -0.572269
O41   O     O_R   0.000350 0.080340 0.029730 -0.572270
O42   O     O_R   0.080340 0.999650 0.029730 -0.572270
O43   O     O_R   0.999650 0.919660 0.029730 -0.572269
O44   O     O_R   0.547030 0.918900 0.500100 -0.575029
O45   O     O_R   0.918900 0.452970 0.500100 -0.575030
O46   O     O_R   0.452970 0.081100 0.500100 -0.575029
O47   O     O_R   0.081100 0.547030 0.500100 -0.575030
O48   O     O_R   0.047030 0.581100 0.999900 -0.575030

loop_
_geom_bond_atom_site_label_1
_geom_bond_atom_site_label_2
_ccdc_geom_bond_type
C123  O4    A    
C54   N8    A    
C19   C20   S    
C18   H10   S    
C50   H96   S    
N5    N9    A    
N7    N11   A    
C43   H80   S    
Cu7   O13   S    
Cu8   O18   S    
C126  C143  A    
Cu5   O12   S    
C70   O38   A    
C48   H90   S    
C14   C143  A    
N1    N6    A    
C30   C122  S    
C65   O29   A    
C135  H12   S    
C71   O41   A    
C65   C108  S    
C88   C97   T    
Cu2   O35   S    
C100  C109  T    
C21   C22   S    
C40   H64   S    
C10   C140  A    
C37   H62   S    
C31   H44   S    
C2    C117  A    
C78   O22   A    
C45   C47   S    
C30   H46   S    
Cu8   O22   S    
C112  O5    A    
C116  C133  A    
C82   C91   T    
C10   C60   S    
C43   C44   S    
C37   C38   S    
C46   C77   S    
C47   H82   S    
C136  H23   S    
C26   H35   S    
C63   O27   A    
C64   O28   A    
Cu7   O34   S    
C27   H31   S    
C35   C127  A    
C7    C132  A    
C5    C130  A    
C20   H16   S    
Cu2   O32   S    
C54   N6    A    
C39   H68   S    
C120  C138  A    
C117  C135  A    
C118  C136  A    
C17   H14   S    
C68   C83   S    
Cu1   O9    S    
C34   H57   S    
C23   H30   S    
C85   C90   S    
C42   H72   S    
C106  C115  T    
C28   H41   S    
C59   N15   A    
C40   H65   S    
C19   H18   S    
C61   N9    A    
C5    H6    S    
C34   C125  S    
C29   H37   S    
C66   O32   A    
C24   C121  A    
C84   C93   T    
C16   C54   S    
C86   C95   T    
Cu2   O33   S    
C12   C144  A    
C6    H7    S    
C68   O23   A    
C4    H5    S    
C10   C138  A    
C31   H42   S    
C8    C62   S    
C55   N7    A    
Cu6   O46   S    
C56   N2    A    
Cu3   Cu4   S    
Cu11  O4    S    
C99   C108  T    
C33   H49   S    
C9    C61   S    
C26   C120  S    
Cu5   Cu7   S    
C23   C119  S    
C79   C84   S    
C1    O1    A    
C35   C125  A    
Cu6   O11   S    
Cu9   O19   S    
C48   C131  S    
Cu10  O20   S    
C60   N14   A    
C32   H52   S    
Cu1   Cu6   S    
C118  C134  A    
C27   H32   S    
N2    N12   A    
C1    O46   A    
C64   O35   A    
C76   O18   A    
C77   O19   A    
Cu11  O6    S    
C112  O3    A    
C49   H87   S    
C42   H70   S    
C70   C113  S    
C35   C76   S    
C59   N13   A    
Cu12  O29   S    
C43   C129  S    
C53   C80   S    
C61   N11   A    
C39   C40   S    
C3    C128  A    
C80   O24   A    
C78   O25   A    
C65   O33   A    
C29   H39   S    
C66   O30   A    
C15   C55   S    
C17   C18   S    
C11   C141  A    
C79   O34   A    
C74   O14   A    
C2    C73   S    
C90   O48   A    
C47   H83   S    
C9    C135  A    
C56   N4    A    
C101  O6    A    
C13   C120  A    
C25   H26   S    
C143  H2    S    
C37   C126  S    
C73   O13   A    
Cu12  O27   S    
Cu8   Cu10  S    
C18   H11   S    
Cu9   O26   S    
C63   O31   A    
C89   C98   S    
C121  C139  A    
C122  C140  A    
C43   H79   S    
C44   H77   S    
Cu1   O44   S    
N3    N15   A    
C28   H40   S    
C133  H1    S    
C124  C141  A    
C19   H19   S    
C104  C113  T    
C57   O12   A    
C45   C130  S    
C41   H74   S    
Cu7   O45   S    
C57   C82   S    
C76   O20   A    
C91   C99   S    
Cu11  O21   S    
Cu4   O41   S    
C62   N1    A    
C96   C105  S    
Cu11  O24   S    
C8    C136  A    
C41   C42   S    
C60   N12   A    
C57   O45   A    
Cu9   O2    S    
C38   H59   S    
C31   H43   S    
C123  O8    A    
C30   H47   S    
Cu3   O38   S    
C26   C27   S    
C52   C129  A    
C28   C29   S    
C44   H75   S    
Cu8   O5    S    
C30   C31   S    
C11   C59   S    
C116  C134  A    
C1    C81   S    
C103  C111  T    
C51   H94   S    
C11   C139  A    
C47   H81   S    
C9    C137  A    
Cu9   Cu11  S    
C25   H28   S    
C36   H53   S    
C81   C89   T    
C74   O16   A    
C38   H61   S    
C79   O47   A    
C69   O43   A    
C52   C78   S    
C18   H9    S    
C34   H58   S    
C71   O39   A    
C23   H29   S    
C26   H36   S    
C42   H71   S    
C98   C107  T    
C71   C114  S    
C40   H66   S    
C55   N5    A    
C21   C118  S    
C72   C134  S    
C142  H89   S    
C75   O17   A    
C50   C51   S    
C58   N3    A    
Cu6   O16   S    
C144  H3    S    
C3    C14   A    
C50   C132  S    
Cu4   O43   S    
C97   C106  S    
C7    C16   A    
C94   C103  S    
C139  H56   S    
C102  C110  T    
C37   H63   S    
Cu10  O3    S    
Cu12  O30   S    
Cu3   O36   S    
C52   C131  A    
C6    C131  A    
C93   C102  S    
C22   H20   S    
C24   C75   S    
C4    C129  A    
C87   C112  S    
C73   O10   A    
C7    H8    S    
C33   H48   S    
C67   O36   A    
C32   C33   S    
C51   H92   S    
C63   C110  S    
C12   C142  A    
C127  C144  A    
C66   C109  S    
C39   H69   S    
C36   H55   S    
C20   H15   S    
C13   C74   S    
C19   C117  S    
C58   N16   A    
C68   O44   A    
C69   O37   A    
C70   O42   A    
C50   H95   S    
C14   C56   S    
Cu10  O25   S    
C75   O15   A    
C32   C124  S    
C22   H22   S    
C62   N10   A    
C49   H86   S    
Cu4   O40   S    
Cu2   O31   S    
C21   H25   S    
C83   C92   T    
C46   C128  A    
C48   H91   S    
C77   O21   A    
C138  H45   S    
C17   H13   S    
C29   H38   S    
Cu3   O39   S    
C24   C124  A    
Cu1   O1    S    
C72   O9    A    
C67   C115  S    
C5    C16   A    
C6    C15   A    
C21   H24   S    
C141  H78   S    
C90   O7    A    
C34   C36   S    
C12   C58   S    
Cu6   O23   S    
C41   C128  S    
C88   C123  S    
Cu1   O14   S    
Cu5   O47   S    
C67   O40   A    
C33   H50   S    
C39   C127  S    
Cu12  O28   S    
C119  C137  A    
C105  C114  T    
N8    N10   A    
C53   C132  A    
C28   C121  S    
C137  H34   S    
Cu7   O15   S    
C85   C94   T    
C20   H17   S    
C125  C142  A    
C87   C96   T    
Cu5   O10   S    
C32   H51   S    
C80   O26   A    
C41   H73   S    
C3    H4    S    
C45   H85   S    
C49   H88   S    
C95   C104  S    
C92   C100  S    
C64   C107  S    
Cu4   O42   S    
N4    N14   A    
C48   C49   S    
C8    C133  A    
Cu5   O17   S    
C46   C126  A    
C38   H60   S    
C2    C119  A    
C140  H67   S    
C101  O2    A    
Cu3   O37   S    
Cu8   O48   S    
C72   O11   A    
C4    C15   A    
C44   H76   S    
C45   H84   S    
C13   C122  A    
C69   C111  S    
Cu9   O8    S    
C23   C25   S    
Cu10  O7    S    
C51   H93   S    
N13   N16   A    
Cu2   Cu12  S    
C53   C130  A    
C27   H33   S    
C22   H21   S    
C86   C101  S    
C25   H27   S    
C17   C116  S    
C36   H54   S    
