data_mof_unit_pretest_426.cif
_audit_creation_date              2013-03-05T16:45:33-0500
_audit_creation_method            fapswitch 2.2
_symmetry_space_group_name_H-M    P1
_symmetry_Int_Tables_number       1
_space_group_crystal_system       triclinic
_cell_length_a                    15.699405
_cell_length_b                    10.648731
_cell_length_c                    9.961661
_cell_angle_alpha                 89.690731
_cell_angle_beta                  90.369972
_cell_angle_gamma                 90.474103
_cell_volume                      1665.2624247

loop_
_atom_site_label
_atom_site_type_symbol
_atom_site_description
_atom_site_fract_x
_atom_site_fract_y
_atom_site_fract_z
_atom_type_partial_charge
O1    O     O_R   0.500010 0.316790 0.614690 -0.632461
O2    O     O_R   0.500000 0.316760 0.385350 -0.549387
C1    C     C_R   0.505673 0.260453 0.500463 0.934381
O3    O     O_R   0.378030 0.499990 0.614640 -0.592143
O4    O     O_R   0.378020 0.499950 0.385300 -0.589860
C2    C     C_R   0.339079 0.503313 0.499560 0.905254
Zn1   Zn    Zn3+2 0.500010 0.500020 0.653130 1.041675
Zn2   Zn    Zn3+2 0.499990 0.499980 0.346870 1.073116
O5    O     O_R   0.500000 0.683240 0.614650 -0.589175
O6    O     O_R   0.499990 0.683210 0.385310 -0.593035
O7    O     O_R   0.621980 0.500050 0.614700 -0.569126
O8    O     O_R   0.621970 0.500010 0.385360 -0.576056
C3    C     C_R   0.505110 0.739688 0.499782 0.877876
C4    C     C_R   0.660834 0.500436 0.500421 0.882002
C5    C     C_R   0.957551 0.575943 0.620113 0.178127
C6    C     C_R   0.913696 0.554065 0.499144 -0.075584
C7    C     C_R   0.955289 0.558633 0.375264 0.048173
C8    C     C_R   0.043735 0.576785 0.372018 0.043519
C9    C     C_R   0.088992 0.583186 0.494709 -0.064769
C10   C     C_R   0.046207 0.591808 0.617982 0.225980
C11   C     C_1   0.824639 0.531374 0.500903 0.131706
C12   C     C_1   0.177645 0.556103 0.496839 0.064375
C13   C     C_1   0.251231 0.529519 0.498365 -0.105945
C14   C     C_1   0.749772 0.514411 0.501144 -0.019364
C15   C     C_R   0.514547 0.062876 0.622575 -0.031876
C16   C     C_R   0.524889 0.129577 0.503142 -0.105801
C17   C     C_R   0.558295 0.067405 0.390207 0.052276
C18   C     C_R   0.557246 0.935265 0.389120 0.042970
C19   C     C_R   0.523776 0.870958 0.501675 -0.126638
C20   C     C_R   0.513615 0.935072 0.621537 0.005804
C21   C     C_3   0.447702 0.923647 0.729852 0.130720
C22   C     C_3   0.450067 0.067731 0.733812 0.091895
H1    H     H_    0.386820 0.881261 0.693456 0.093486
C23   C     C_R   0.426007 0.512900 0.070206 0.055909
N1    N     N_R   0.499440 0.499140 0.142800 -0.164871
C24   C     C_R   0.574160 0.495586 0.071725 0.281151
C25   C     C_R   0.574061 0.495405 0.929485 0.252797
N2    N     N_R   0.499440 0.499180 0.857150 -0.176791
C26   C     C_R   0.425978 0.512107 0.928108 0.127368
C27   C     C_3   0.349632 0.427107 0.921300 -0.263550
C28   C     C_3   0.348261 0.430104 0.076017 0.289436
H2    H     H_    0.364239 0.334104 0.877605 0.212350
N3    N     N_R   0.093185 0.612177 0.740514 0.224707
O9    O     O_R   0.152708 0.697838 0.745090 -0.396313
O10   O     O_R   0.074713 0.549201 0.848950 -0.369200
N4    N     N_3   0.485171 0.120940 0.858305 -0.334466
H3    H     H_    0.546575 0.086739 0.875841 0.229029
H4    H     H_    0.492213 0.217814 0.845403 0.225213
N5    N     N_R   0.654263 0.486897 0.138898 0.250721
O11   O     O_R   0.687830 0.377034 0.158860 -0.353732
O12   O     O_R   0.701672 0.587032 0.151253 -0.335071
N6    N     N_R   0.653788 0.485931 0.863386 0.256258
O13   O     O_R   0.701862 0.585392 0.851286 -0.262615
O14   O     O_R   0.685878 0.375587 0.842236 -0.337386
N7    N     N_3   0.277776 0.486750 0.852661 -0.383954
H5    H     H_    0.269514 0.578828 0.885462 0.253764
H6    H     H_    0.222757 0.434435 0.873021 0.239631
N8    N     N_3   0.275662 0.493800 0.136981 -0.421030
H7    H     H_    0.219324 0.449061 0.106555 0.222427
H8    H     H_    0.273269 0.588086 0.107427 0.179248
N9    N     N_R   0.364248 0.307306 0.138731 0.248215
O15   O     O_R   0.428979 0.240305 0.102612 -0.424187
O16   O     O_R   0.313701 0.263693 0.231277 -0.359249
N10   N     N_R   0.912200 0.580803 0.744576 0.253364
O17   O     O_R   0.917235 0.680277 0.819573 -0.296162
O18   O     O_R   0.869159 0.483387 0.786188 -0.281265
N11   N     N_3   0.907165 0.541626 0.253450 -0.357216
H9    H     H_    0.912416 0.623205 0.195205 0.240566
H10   H     H_    0.933273 0.467041 0.200168 0.252172
N12   N     N_3   0.086328 0.582394 0.244354 -0.414206
H11   H     H_    0.059067 0.655121 0.188328 0.220600
H12   H     H_    0.149509 0.611062 0.256885 0.201138
N13   N     N_3   0.591225 0.137434 0.278199 -0.368863
H13   H     H_    0.558221 0.110885 0.191403 0.246216
H14   H     H_    0.655392 0.114901 0.266429 0.209351
N14   N     N_3   0.586926 0.867425 0.274574 -0.384642
H15   H     H_    0.550571 0.892959 0.190674 0.243566
H16   H     H_    0.650531 0.891907 0.257354 0.209568
N15   N     N_R   0.479431 0.863588 0.852993 0.229097
O19   O     O_R   0.555597 0.816379 0.859686 -0.357781
O20   O     O_R   0.429415 0.853142 0.956093 -0.388506
N16   N     N_3   0.369382 0.126263 0.694486 -0.437617
H17   H     H_    0.324400 0.104629 0.768216 0.226852
H18   H     H_    0.347073 0.087028 0.604657 0.185840

loop_
_geom_bond_atom_site_label_1
_geom_bond_atom_site_label_2
_geom_bond_distance
_ccdc_geom_bond_type
C8    N12   1.441373 S    
N7    H5    1.044573 S    
C6    C11   1.417108 S    
N13   H13   1.044225 S    
C9    C10   1.407304 A    
C28   N9    1.468951 S    
Zn1   O7    1.955168 S    
C16   C17   1.414365 A    
C25   N2    1.372168 A    
C3    C19   1.426061 S    
C24   C25   1.416955 A    
N14   H16   1.044958 S    
C28   N8    1.467694 S    
C8    C9    1.411437 A    
O4    C2    1.296291 A    
O7    C4    1.294969 A    
N8    H8    1.045682 S    
C5    C6    1.403603 A    
C23   N1    1.365424 A    
C4    C14   1.402931 S    
N9    O16   1.301562 A    
O5    C3    1.292318 A    
N1    C24   1.374976 A    
C6    C7    1.400317 A    
N5    O12   1.301255 A    
C5    N10   1.435123 S    
C21   H1    1.113061 S    
N12   H11   1.045066 S    
C15   C22   1.507083 S    
C27   H2    1.110207 S    
N13   H14   1.044988 S    
C5    C10   1.400955 A    
C23   C28   1.501000 S    
O3    Zn1   1.950590 S    
N6    O14   1.301047 A    
N2    C26   1.364898 A    
N4    H4    1.043920 S    
C7    N11   1.436790 S    
N11   H9    1.045032 S    
C9    C12   1.423693 S    
N14   H15   1.045073 S    
O3    C2    1.296250 A    
C26   C27   1.497378 S    
N15   O20   1.300577 A    
C25   N6    1.422611 S    
C15   C16   1.392063 A    
C23   C26   1.415601 A    
O1    C1    1.293115 A    
Zn2   N1    2.032906 S    
N10   O18   1.300728 A    
N3    O9    1.301223 A    
C19   C20   1.389365 A    
C21   C22   1.535173 S    
Zn2   O8    1.950589 S    
C27   N7    1.463115 S    
C7    C8    1.400902 A    
N3    O10   1.301413 A    
C27   C28   1.542031 S    
O8    C4    1.295010 A    
N5    O11   1.300862 A    
N16   H18   1.046677 S    
N7    H6    1.044347 S    
C18   N14   1.436100 S    
C10   N3    1.438574 S    
N6    O13   1.300961 A    
C15   C20   1.361001 A    
Zn1   O5    1.986331 S    
N4    H3    1.046629 S    
C18   C19   1.412653 A    
O1    Zn1   1.990414 S    
C22   N4    1.468450 S    
C1    C16   1.428453 S    
O2    Zn2   1.986329 S    
O6    C3    1.293811 A    
O4    Zn2   1.955168 S    
C21   N15   1.466566 S    
C22   N16   1.466458 S    
N10   O17   1.301088 A    
O2    C1    1.294049 A    
N8    H7    1.045109 S    
C20   C21   1.503581 S    
C2    C13   1.409328 S    
Zn1   N2    2.032427 S    
N9    O15   1.300281 A    
N15   O19   1.302141 A    
Zn2   O6    1.990415 S    
N16   H17   1.045663 S    
C11   C14   1.187704 T    
C17   C18   1.407176 A    
C12   C13   1.191699 T    
N12   H12   1.042333 S    
N11   H10   1.045599 S    
C17   N13   1.435424 S    
C24   N5    1.424142 S    
