data_mof_unit_pretest_1113.cif
_audit_creation_date              2012-12-10T21:13:59-0500
_audit_creation_method            fapswitch 2.2
_symmetry_space_group_name_H-M    P1
_symmetry_Int_Tables_number       1
_space_group_crystal_system       triclinic
_cell_length_a                    15.375221
_cell_length_b                    16.729894
_cell_length_c                    17.451735
_cell_angle_alpha                 89.850299
_cell_angle_beta                  89.642068
_cell_angle_gamma                 66.208937
_cell_volume                      4107.4899628

loop_
_atom_site_label
_atom_site_type_symbol
_atom_type_description
_atom_site_fract_x
_atom_site_fract_y
_atom_site_fract_z
_atom_type_partial_charge
C1    C     C_R   0.498590 0.500430 0.646861 0.899942
C2    C     C_R   0.499522 0.500415 0.353139 0.908830
C3    C     C_R   0.108863 0.396377 0.472460 0.081642
C4    C     C_R   0.887843 0.604799 0.478841 0.084329
C5    C     C_R   0.069722 0.340916 0.441817 -0.271752
C6    C     C_R   0.923926 0.663802 0.505742 -0.280805
C7    C     C_R   0.598934 0.416094 0.160924 0.058737
C8    C     C_R   0.604352 0.504193 0.836980 0.054427
C9    C     C_R   0.579970 0.422053 0.239124 -0.273254
C10   C     C_R   0.585434 0.511894 0.758821 -0.263333
C11   C     C_R   0.509259 0.497275 0.270583 -0.158484
C12   C     C_R   0.509185 0.496415 0.729192 -0.161480
C13   C     C_R   0.453981 0.568475 0.223598 -0.039407
C14   C     C_R   0.448949 0.473745 0.777870 -0.048476
C15   C     C_R   0.473198 0.562207 0.144843 0.599509
C16   C     C_R   0.470687 0.462375 0.855838 0.608662
C17   C     C_R   0.544836 0.486962 0.114227 -0.050340
C18   C     C_R   0.546311 0.478920 0.884988 -0.053334
C19   C     C_1   0.555009 0.481112 0.033569 0.054865
C20   C     C_1   0.555735 0.478254 0.965577 0.049373
C21   C     C_R   0.542864 0.152187 0.561563 0.041313
C22   C     C_R   0.425895 0.858599 0.460007 0.043941
C23   C     C_R   0.677812 0.444550 0.496339 0.885248
C24   C     C_R   0.322140 0.555372 0.500656 0.881238
C25   C     C_R   0.542728 0.236790 0.558505 -0.042098
C26   C     C_R   0.431263 0.772088 0.460141 -0.058949
C27   C     C_R   0.456128 0.267802 0.442901 -0.016284
C28   C     C_R   0.564466 0.725281 0.541878 -0.010794
C29   C     C_R   0.453997 0.184523 0.443314 -0.322873
C30   C     C_R   0.564021 0.809508 0.541939 -0.316791
C31   C     C_R   0.497540 0.125366 0.502690 0.133618
C32   C     C_R   0.494872 0.877432 0.500683 0.133916
C33   C     C_1   0.495994 0.038023 0.501891 -0.061816
C34   C     C_1   0.495285 0.965205 0.501539 -0.061003
C35   C     C_R   0.781334 0.406602 0.481305 -0.143392
C36   C     C_R   0.217512 0.593455 0.503007 -0.137035
C37   C     C_R   0.929054 0.307974 0.417031 0.153423
C38   C     C_R   0.059524 0.699011 0.541929 0.088191
C39   C     C_R   0.831540 0.329164 0.437340 0.050065
C40   C     C_R   0.159598 0.675527 0.536447 0.059436
C41   C     C_R   0.826580 0.460071 0.501537 -0.282584
C42   C     C_R   0.176134 0.539818 0.474827 -0.282765
C43   C     C_R   0.914094 0.447976 0.471116 0.049436
C44   C     C_R   0.083324 0.553967 0.492109 0.050042
C45   C     C_R   0.971163 0.365805 0.440446 0.054937
C46   C     C_R   0.021682 0.638751 0.516093 0.077405
C47   C     C_R   0.949032 0.513865 0.477145 0.027851
C48   C     C_R   0.048910 0.487922 0.479816 0.025726
H1    H     H_    0.116855 0.274143 0.430023 0.155905
H2    H     H_    0.875439 0.731456 0.511468 0.146007
H3    H     H_    0.576864 0.258115 0.603260 0.130117
H4    H     H_    0.379468 0.756618 0.428989 0.113798
H5    H     H_    0.421855 0.312863 0.396986 0.134227
H6    H     H_    0.616794 0.674146 0.575415 0.125426
H7    H     H_    0.418435 0.166434 0.397370 0.152073
H8    H     H_    0.617084 0.821664 0.574677 0.146037
H9    H     H_    0.216796 0.487913 0.436213 0.156714
H10   H     H_    0.792501 0.512551 0.541948 0.151402
H11   H     H_    0.621457 0.368040 0.275965 0.152750
H12   H     H_    0.630604 0.529755 0.720589 0.155776
N1    N     N_R   0.499980 0.292780 0.499970 -0.090483
N2    N     N_R   0.500020 0.707220 0.500030 -0.092424
O1    O     O_R   0.500000 0.433430 0.610870 -0.625979
O2    O     O_R   0.500000 0.566570 0.389130 -0.617364
O3    O     O_R   0.500010 0.566520 0.610900 -0.605701
O4    O     O_R   0.499990 0.433480 0.389100 -0.626564
O5    O     O_R   0.632240 0.395450 0.499980 -0.613678
O6    O     O_R   0.367760 0.604550 0.500020 -0.610030
O7    O     O_R   0.632250 0.528530 0.500000 -0.617890
O8    O     O_R   0.367750 0.471470 0.500000 -0.615884
Zn1   Zn    Zn3+2 0.500000 0.411140 0.499980 0.907298
Zn2   Zn    Zn3+2 0.500000 0.588860 0.500020 0.912374
C49   C     C_3   0.591859 0.092346 0.627299 -0.450694
C50   C     C_3   0.519283 0.090918 0.687329 -0.323081
C51   C     C_3   0.567973 0.028713 0.752853 -0.871814
H13   H     H_    0.605652 0.961070 0.730838 0.257779
H14   H     H_    0.619709 0.049409 0.781694 0.261458
H15   H     H_    0.513872 0.029285 0.795541 0.251307
H16   H     H_    0.480488 0.157760 0.710914 0.224840
H17   H     H_    0.466652 0.069682 0.660686 0.226986
H18   H     H_    0.633945 0.025361 0.605272 0.207719
H19   H     H_    0.643102 0.114677 0.655032 0.194301
C52   C     C_3   0.344751 0.929309 0.418923 -0.445697
C53   C     C_3   0.377036 0.951622 0.341543 -0.317687
C54   C     C_3   0.295390 0.024838 0.301538 -0.891449
H20   H     H_    0.235936 0.004720 0.290900 0.260015
H21   H     H_    0.269267 0.084920 0.337269 0.256205
H22   H     H_    0.320519 0.039731 0.245699 0.251856
H23   H     H_    0.436179 0.972782 0.349714 0.226323
H24   H     H_    0.402939 0.892707 0.304267 0.221251
H25   H     H_    0.286097 0.907712 0.409095 0.192560
H26   H     H_    0.315070 0.988522 0.455707 0.210074
C55   C     C_3   0.203445 0.737649 0.563923 -0.416043
C56   C     C_3   0.251245 0.709528 0.642010 -0.329964
C57   C     C_3   0.306497 0.763695 0.664661 -0.840613
H27   H     H_    0.363720 0.754841 0.622223 0.278232
H28   H     H_    0.258190 0.834010 0.667987 0.247812
H29   H     H_    0.339501 0.742016 0.721624 0.246679
H30   H     H_    0.195690 0.718227 0.686074 0.213126
H31   H     H_    0.300769 0.639598 0.641134 0.229977
H32   H     H_    0.253173 0.743330 0.520313 0.213636
H33   H     H_    0.151100 0.805988 0.568893 0.196813
C58   C     C_3   0.781584 0.271515 0.411562 -0.386907
C59   C     C_3   0.778112 0.209360 0.475622 -0.314606
C60   C     C_3   0.740890 0.143695 0.445145 -0.908409
H34   H     H_    0.670434 0.178172 0.417934 0.279432
H35   H     H_    0.791238 0.099990 0.402237 0.251242
H36   H     H_    0.733191 0.103203 0.493013 0.253211
H37   H     H_    0.849761 0.173438 0.500286 0.215226
H38   H     H_    0.731976 0.245924 0.523629 0.238436
H39   H     H_    0.709078 0.312123 0.390980 0.203885
H40   H     H_    0.815751 0.232382 0.360503 0.184705
C61   C     C_3   0.984362 0.232615 0.362112 -0.410115
C62   C     C_3   0.016878 0.140002 0.396031 -0.343174
C63   C     C_3   0.073398 0.126856 0.470110 -0.848271
H41   H     H_    0.141705 0.132740 0.459080 0.244838
H42   H     H_    0.031848 0.174868 0.514347 0.265845
H43   H     H_    0.089862 0.060186 0.492603 0.236149
H44   H     H_    0.955704 0.122444 0.405522 0.221865
H45   H     H_    0.062751 0.092719 0.352924 0.204457
H46   H     H_    0.941192 0.237550 0.310233 0.148443
H47   H     H_    0.047504 0.239574 0.337386 0.184096
C64   C     C_3   0.994669 0.784787 0.579559 -0.429941
C65   C     C_3   0.962853 0.860316 0.521518 -0.338835
C66   C     C_3   0.914531 0.948391 0.561496 -0.911511
H48   H     H_    0.897044 0.001402 0.518480 0.258085
H49   H     H_    0.847996 0.953059 0.590282 0.261100
H50   H     H_    0.962817 0.957344 0.604496 0.262096
H51   H     H_    0.024620 0.860415 0.488225 0.218139
H52   H     H_    0.912497 0.852310 0.479996 0.218087
H53   H     H_    0.931427 0.779775 0.606376 0.190562
H54   H     H_    0.030589 0.799099 0.629354 0.204175
C67   C     C_3   0.206442 0.350464 0.509698 -0.403043
C68   C     C_3   0.200758 0.365602 0.596468 -0.315310
C69   C     C_3   0.296037 0.313337 0.634558 -0.889005
H55   H     H_    0.321001 0.242785 0.620664 0.260394
H56   H     H_    0.349928 0.337441 0.614957 0.281674
H57   H     H_    0.287922 0.320982 0.697646 0.242697
H58   H     H_    0.179813 0.435892 0.608852 0.232645
H59   H     H_    0.146145 0.345331 0.621583 0.220801
H60   H     H_    0.233373 0.278640 0.500733 0.194578
H61   H     H_    0.262717 0.366669 0.483952 0.208689
C70   C     C_3   0.788586 0.643694 0.443536 -0.408089
C71   C     C_3   0.789601 0.619003 0.358773 -0.328314
C72   C     C_3   0.689346 0.657269 0.325614 -0.859568
H62   H     H_    0.643140 0.631187 0.356745 0.286112
H63   H     H_    0.658018 0.729652 0.330215 0.257165
H64   H     H_    0.692035 0.639030 0.264243 0.245460
H65   H     H_    0.835249 0.644208 0.325707 0.220504
H66   H     H_    0.818900 0.546987 0.351834 0.229181
H67   H     H_    0.737195 0.625948 0.475473 0.213719
H68   H     H_    0.758529 0.716263 0.446628 0.195157
C73   C     C_3   0.675823 0.333690 0.128890 -0.411661
C74   C     C_3   0.633092 0.271609 0.098472 -0.310128
C75   C     C_3   0.710004 0.188675 0.065467 -0.890833
H69   H     H_    0.747064 0.205039 0.016983 0.261928
H70   H     H_    0.762572 0.153516 0.110328 0.258270
H71   H     H_    0.677076 0.144958 0.044090 0.254722
H72   H     H_    0.595862 0.253441 0.145844 0.223546
H73   H     H_    0.580521 0.304338 0.052872 0.244452
H74   H     H_    0.715548 0.350492 0.082582 0.195511
H75   H     H_    0.728443 0.299778 0.174253 0.192171
C76   C     C_3   0.685485 0.523859 0.867575 -0.408699
C77   C     C_3   0.649228 0.617949 0.897301 -0.315555
C78   C     C_3   0.730412 0.638204 0.928872 -0.887164
H76   H     H_    0.764978 0.593945 0.977447 0.262437
H77   H     H_    0.784097 0.630257 0.883344 0.259431
H78   H     H_    0.702122 0.706694 0.949750 0.254088
H79   H     H_    0.614623 0.664127 0.849832 0.223623
H80   H     H_    0.595754 0.628258 0.943547 0.242467
H81   H     H_    0.722506 0.477039 0.913992 0.196151
H82   H     H_    0.739095 0.514658 0.821562 0.195727
C79   C     C_3   0.373652 0.649484 0.255517 -0.369309
C80   C     C_3   0.289735 0.629254 0.283553 -0.329560
C81   C     C_3   0.212578 0.709206 0.320642 -0.895291
H83   H     H_    0.241293 0.730247 0.371318 0.251415
H84   H     H_    0.185121 0.763905 0.278957 0.263154
H85   H     H_    0.152816 0.692696 0.339871 0.258025
H86   H     H_    0.258839 0.608137 0.234154 0.235598
H87   H     H_    0.313493 0.575524 0.326218 0.206519
H88   H     H_    0.400427 0.678066 0.302245 0.205918
H89   H     H_    0.346696 0.701512 0.211309 0.248714
C82   C     C_3   0.359259 0.466123 0.749767 -0.379543
C83   C     C_3   0.269832 0.539447 0.783014 -0.303389
C84   C     C_3   0.180022 0.545275 0.742120 -0.937987
H90   H     H_    0.183459 0.560287 0.680442 0.261311
H91   H     H_    0.171439 0.482745 0.748048 0.274305
H92   H     H_    0.117043 0.598359 0.767965 0.256539
H93   H     H_    0.262343 0.527688 0.844853 0.280386
H94   H     H_    0.275949 0.603116 0.777595 0.212006
H95   H     H_    0.354260 0.469323 0.686479 0.203441
H96   H     H_    0.360950 0.401634 0.767228 0.224636
F1    F     F_    0.420692 0.628287 0.097101 -0.682661
F2    F     F_    0.416560 0.437339 0.904219 -0.687324

loop_
_geom_bond_atom_site_label_1
_geom_bond_atom_site_label_2
_ccdc_geom_bond_type
C69   H57   S    
C59   H38   S    
C42   C44   A    
C55   C56   S    
C64   H54   S    
C75   H70   S    
C49   C50   S    
C23   O7    A    
C36   C42   A    
C57   H27   S    
C40   C55   S    
C82   C83   S    
C82   H96   S    
C4    C70   S    
C62   C63   S    
C57   H29   S    
C24   O8    A    
C64   C65   S    
C81   H84   S    
C54   H20   S    
C13   C79   S    
C52   H26   S    
C21   C31   A    
C67   H61   S    
C78   H76   S    
C22   C32   A    
C52   C53   S    
C77   C78   S    
C38   C40   A    
C41   H10   S    
C68   H59   S    
C59   H37   S    
C84   H91   S    
C27   C29   A    
C70   C71   S    
C21   C49   S    
C3    C48   A    
C83   C84   S    
C58   H39   S    
C23   O5    A    
C80   C81   S    
C71   H66   S    
C27   N1    A    
C77   H80   S    
C61   H47   S    
C76   C77   S    
C44   C46   A    
C7    C17   A    
C66   H50   S    
C1    O3    A    
C31   C33   S    
O8    Zn1   S    
C56   H31   S    
C76   H81   S    
C18   C20   S    
C62   H44   S    
C3    C5    A    
N1    Zn1   S    
C70   H67   S    
C79   H88   S    
C78   H77   S    
C50   H17   S    
C75   H71   S    
C14   C82   S    
C41   C43   A    
C5    H1    S    
C77   H79   S    
C1    C12   S    
C53   H24   S    
C2    C11   S    
C1    O1    A    
C42   H9    S    
C49   H18   S    
C59   C60   S    
C72   H63   S    
C2    O2    A    
C72   H62   S    
C81   H85   S    
C54   H21   S    
C60   H36   S    
C50   C51   S    
C65   H52   S    
C69   H55   S    
C44   C48   A    
C53   C54   S    
C4    C6    A    
C55   H32   S    
C68   H58   S    
C28   H6    S    
C84   H92   S    
C29   H7    S    
C63   H42   S    
C79   C80   S    
C5    C45   A    
C8    C18   A    
C73   H74   S    
C58   H40   S    
C3    C67   S    
C32   C34   S    
O7    Zn2   S    
C10   H12   S    
C51   H13   S    
C25   H3    S    
O4    Zn1   S    
C74   H73   S    
C71   H65   S    
C26   H4    S    
C60   H35   S    
C47   C48   A    
C7    C73   S    
C36   C40   A    
O6    Zn2   S    
C63   H43   S    
C27   H5    S    
C33   C34   T    
N2    Zn2   S    
C25   N1    A    
C6    H2    S    
C76   H82   S    
C51   H14   S    
C74   C75   S    
C10   C12   A    
C16   C18   A    
C70   H68   S    
O1    Zn1   S    
C79   H89   S    
C78   H78   S    
C23   C35   S    
C50   H16   S    
C9    C11   A    
C67   C68   S    
C14   C16   A    
C53   H23   S    
C37   C45   A    
C80   H87   S    
C49   H19   S    
C58   C59   S    
C72   H64   S    
C61   C62   S    
C54   H22   S    
C69   H56   S    
C21   C25   A    
C83   H94   S    
C6    C46   A    
C64   H53   S    
C29   C31   A    
C38   C64   S    
C12   C14   A    
C71   C72   S    
C2    O4    A    
C8    C76   S    
C82   H95   S    
C55   H33   S    
C57   H28   S    
C39   C58   S    
C68   C69   S    
O3    Zn2   S    
C52   H25   S    
C60   H34   S    
C67   H60   S    
C24   C36   S    
C73   H75   S    
C22   C52   S    
C19   C20   T    
C13   C15   A    
C26   N2    A    
C74   H72   S    
C37   C39   A    
C81   H83   S    
C30   C32   A    
C11   C13   A    
C84   H90   S    
C66   H48   S    
C30   H8    S    
C56   H30   S    
C35   C39   A    
C80   H86   S    
C28   C30   A    
C17   C19   S    
C65   H51   S    
O5    Zn1   S    
O2    Zn2   S    
C56   C57   S    
C35   C41   A    
C51   H15   S    
C38   C46   A    
C16   F2    S    
C24   O6    A    
C15   F1    S    
C7    C9    A    
C61   H46   S    
C8    C10   A    
C22   C26   A    
C75   H69   S    
C66   H49   S    
C83   H93   S    
C37   C61   S    
C9    H11   S    
C73   C74   S    
C15   C17   A    
C43   C47   A    
C43   C45   A    
C62   H45   S    
C63   H41   S    
C65   C66   S    
C4    C47   A    
C28   N2    A    
