data_mof_unit_pretest_1520.cif
_audit_creation_date              2012-12-10T19:01:40-0500
_audit_creation_method            fapswitch 2.2
_symmetry_space_group_name_H-M    P1
_symmetry_Int_Tables_number       1
_space_group_crystal_system       triclinic
_cell_length_a                    14.25268
_cell_length_b                    13.386426
_cell_length_c                    10.644134
_cell_angle_alpha                 89.302622
_cell_angle_beta                  89.88209
_cell_angle_gamma                 89.976772
_cell_volume                      2030.66548828

loop_
_atom_site_label
_atom_site_type_symbol
_atom_type_description
_atom_site_fract_x
_atom_site_fract_y
_atom_site_fract_z
_atom_type_partial_charge
C1    C     C_R   0.326593 0.500016 0.499563 0.959898
C2    C     C_3   0.498766 0.403758 0.963524 0.111792
C3    C     C_3   0.577142 0.546129 0.954730 0.091958
C4    C     C_3   0.422859 0.453870 0.045270 0.091957
C5    C     C_3   0.422614 0.547406 0.959407 -0.058067
C6    C     C_3   0.577386 0.452594 0.040593 -0.058056
C7    C     C_3   0.498252 0.497635 0.878318 -0.241875
C8    C     C_3   0.501748 0.502365 0.121682 -0.241874
C9    C     C_1   0.500000 0.169463 0.500001 0.069772
C10   C     C_1   0.500000 0.830537 0.499999 0.069770
C11   C     C_1   0.225949 0.500039 0.499722 -0.205158
C12   C     C_R   0.673407 0.499984 0.500437 0.959897
C13   C     C_1   0.774051 0.499961 0.500278 -0.205158
C14   C     C_1   0.141369 0.500040 0.499848 -0.001298
C15   C     C_1   0.858631 0.499960 0.500152 -0.001298
C16   C     C_2   0.335132 0.599452 0.914744 0.893420
C17   C     C_2   0.664868 0.400547 0.085255 0.893414
C18   C     C_3   0.498639 0.703586 0.085651 -0.349625
C19   C     C_3   0.499686 0.781955 0.980226 -0.840157
C20   C     C_3   0.501359 0.296414 0.914347 -0.349626
C21   C     C_3   0.500320 0.218044 0.019771 -0.840167
C22   C     C_3   0.664603 0.592220 0.892572 -0.385123
C23   C     C_1   0.042293 0.500015 0.499959 0.020667
C24   C     C_3   0.732631 0.636080 0.987733 -0.819506
C25   C     C_3   0.335396 0.407781 0.107428 -0.385128
C26   C     C_3   0.267371 0.363915 0.012268 -0.819526
C27   C     C_1   0.957707 0.499985 0.500041 0.020667
C28   C     C_1   0.500000 0.049523 0.500000 -0.043963
C29   C     C_1   0.500000 0.950477 0.499999 -0.043963
C30   C     C_R   0.502317 0.500810 0.254508 0.989318
C31   C     C_R   0.497683 0.499189 0.745492 0.989318
C32   C     C_3   0.501233 0.596241 0.036476 0.111785
H1    H     H_    0.252498 0.639833 0.769252 0.342752
H2    H     H_    0.508765 0.142685 0.978803 0.247966
H3    H     H_    0.440576 0.284019 0.851480 0.210107
H4    H     H_    0.566321 0.286703 0.857970 0.232309
H5    H     H_    0.700292 0.699689 0.037341 0.253995
H6    H     H_    0.754823 0.578804 0.057669 0.269258
H7    H     H_    0.796066 0.663907 0.937765 0.252530
H8    H     H_    0.701381 0.533292 0.838784 0.214639
H9    H     H_    0.643155 0.651476 0.824765 0.213174
H10   H     H_    0.245185 0.421184 0.942321 0.269259
H11   H     H_    0.299709 0.300301 0.962673 0.254000
H12   H     H_    0.747501 0.360164 0.230747 0.342751
H13   H     H_    0.203934 0.336096 0.062233 0.252535
H14   H     H_    0.356843 0.348529 0.175241 0.213170
H15   H     H_    0.298616 0.466712 0.161210 0.214645
H16   H     H_    0.567175 0.780576 0.928605 0.257138
H17   H     H_    0.441451 0.769642 0.913270 0.272809
H18   H     H_    0.491213 0.857312 0.021189 0.247969
H19   H     H_    0.433673 0.713298 0.142020 0.232309
H20   H     H_    0.559418 0.715981 0.148525 0.210106
H21   H     H_    0.558574 0.230341 0.086699 0.272813
H22   H     H_    0.432844 0.219440 0.071421 0.257146
N1    N     N_1   0.500000 0.261870 0.500000 -0.067512
N2    N     N_1   0.500000 0.738130 0.500000 -0.067512
O1    O     O_R   0.373710 0.576470 0.500000 -0.574896
O2    O     O_R   0.313398 0.603186 0.786929 -0.816191
O3    O     O_2   0.717306 0.362236 0.008678 -0.630107
O4    O     O_R   0.686602 0.396812 0.213071 -0.816188
O5    O     O_R   0.626290 0.423530 0.500000 -0.574896
O6    O     O_R   0.626290 0.576470 0.500000 -0.615185
O7    O     O_R   0.373710 0.423530 0.500000 -0.615185
O8    O     O_R   0.499980 0.576440 0.313950 -0.640272
O9    O     O_R   0.500020 0.423560 0.686050 -0.640273
O10   O     O_R   0.500020 0.576440 0.686050 -0.593065
O11   O     O_R   0.499980 0.423560 0.313950 -0.593063
O12   O     O_2   0.282694 0.637763 0.991322 -0.630105
Zn1   Zn    Zn3+2 0.500000 0.602090 0.500000 0.978501
Zn2   Zn    Zn3+2 0.500000 0.397910 0.500000 0.978502

loop_
_geom_bond_atom_site_label_1
_geom_bond_atom_site_label_2
_ccdc_geom_bond_type
O5    Zn2   S    
C14   C23   S    
C31   O10   A    
C2    C4    S    
H1    O2    S    
C16   O12   D    
C23   C27   T    
C22   H9    S    
C10   N2    T    
C19   H17   S    
C26   H11   S    
C15   C27   S    
C30   O11   A    
C10   C29   S    
O7    Zn2   S    
C21   H22   S    
C4    C8    S    
C5    C32   S    
C22   H8    S    
C8    C30   S    
O11   Zn2   S    
C24   H5    S    
C18   H20   S    
C16   O2    S    
O8    Zn1   S    
C12   C13   S    
C21   H21   S    
C12   O5    A    
O9    Zn2   S    
C19   H18   S    
C30   O8    A    
C2    C6    S    
C8    C32   S    
H12   O4    S    
C9    N1    T    
C1    O7    A    
C20   H4    S    
C28   C29   T    
C7    C31   S    
C17   O3    D    
C18   H19   S    
C4    C25   S    
C3    C7    S    
C1    O1    A    
C13   C15   T    
C3    C32   S    
C11   C14   T    
C22   C24   S    
O10   Zn1   S    
C18   C32   S    
C17   O4    S    
C2    C20   S    
C24   H6    S    
N1    Zn2   S    
O6    Zn1   S    
C24   H7    S    
C12   O6    A    
C20   C21   S    
C26   H10   S    
C5    C7    S    
C18   C19   S    
C3    C6    S    
C31   O9    A    
C6    C17   S    
C25   H15   S    
C19   H16   S    
N2    Zn1   S    
C3    C22   S    
C6    C8    S    
C21   H2    S    
C26   H13   S    
O1    Zn1   S    
C25   C26   S    
C20   H3    S    
C25   H14   S    
C2    C7    S    
C9    C28   S    
C4    C5    S    
C5    C16   S    
C1    C11   S    
