data_mof_unit_pretest_1884.cif
_audit_creation_date              2012-12-10T21:27:23-0500
_audit_creation_method            fapswitch 2.2
_symmetry_space_group_name_H-M    P1
_symmetry_Int_Tables_number       1
_space_group_crystal_system       triclinic
_cell_length_a                    10.761731
_cell_length_b                    16.12725
_cell_length_c                    16.897563
_cell_angle_alpha                 86.42356
_cell_angle_beta                  91.638535
_cell_angle_gamma                 106.357447
_cell_volume                      2808.3205661

loop_
_atom_site_label
_atom_site_type_symbol
_atom_type_description
_atom_site_fract_x
_atom_site_fract_y
_atom_site_fract_z
_atom_type_partial_charge
C1    C     C_R   0.497535 0.487417 0.652703 0.923595
C2    C     C_R   0.502599 0.512598 0.347319 0.894071
C3    C     C_R   0.427526 0.401571 0.779800 0.252304
C4    C     C_R   0.575498 0.598185 0.220600 0.249051
C5    C     C_R   0.430218 0.750134 0.464153 -0.001472
C6    C     C_R   0.570264 0.249925 0.535456 -0.004980
C7    C     C_R   0.425738 0.836141 0.467677 0.193339
C8    C     C_R   0.574605 0.163894 0.531873 0.191666
C9    C     C_R   0.513488 0.892070 0.518685 0.261789
C10   C     C_R   0.486269 0.107895 0.481210 0.260844
C11   C     C_R   0.599318 0.857544 0.565153 -0.283400
C12   C     C_R   0.399994 0.142365 0.435103 -0.283104
C13   C     C_R   0.599317 0.771079 0.559759 0.017379
C14   C     C_R   0.400119 0.228849 0.440555 0.015209
C15   C     C_R   0.743854 0.536064 0.498828 0.812843
C16   C     C_R   0.256175 0.464569 0.495669 0.821902
C17   C     C_2   0.881899 0.557796 0.488476 0.479651
C18   C     C_2   0.118184 0.445381 0.483719 0.461170
C19   C     C_2   0.931394 0.497143 0.463601 -0.225826
C20   C     C_2   0.068801 0.510992 0.464097 -0.241256
C21   C     C_R   0.499446 0.477844 0.738311 -0.113234
C22   C     C_R   0.501607 0.522324 0.261753 -0.105553
C23   C     C_R   0.574661 0.547507 0.779455 -0.255090
C24   C     C_R   0.425610 0.453189 0.220324 -0.261724
C25   C     C_R   0.575745 0.542967 0.861271 -0.134083
C26   C     C_R   0.425558 0.457862 0.138512 -0.135770
C27   C     C_R   0.499676 0.468613 0.902984 0.272230
C28   C     C_R   0.503452 0.531790 0.097136 0.272556
C29   C     C_R   0.429327 0.397584 0.862177 -0.198944
C30   C     C_R   0.574698 0.602332 0.138227 -0.199472
H1    H     H_    0.130056 0.577198 0.455871 0.203935
H2    H     H_    0.870204 0.433311 0.450115 0.203188
H3    H     H_    0.665364 0.745147 0.596247 0.157046
H4    H     H_    0.333708 0.254737 0.404356 0.155236
H5    H     H_    0.366590 0.395254 0.251371 0.175181
H6    H     H_    0.632292 0.605773 0.748193 0.177115
H7    H     H_    0.366394 0.403271 0.107760 0.168749
H8    H     H_    0.634196 0.598008 0.891750 0.168907
H9    H     H_    0.371527 0.340354 0.894712 0.180274
H10   H     H_    0.633892 0.659246 0.105946 0.180831
H11   H     H_    0.638033 0.293167 0.573341 0.177276
H12   H     H_    0.362929 0.706951 0.425986 0.164303
H13   H     H_    0.665998 0.897662 0.605876 0.202893
H14   H     H_    0.332867 0.102191 0.394626 0.202708
N1    N     N_2   0.488229 0.464041 0.985888 -0.177428
N2    N     N_2   0.515375 0.536441 0.014270 -0.177426
N3    N     N_R   0.515370 0.719110 0.509820 -0.109099
N4    N     N_R   0.484630 0.280890 0.490180 -0.110808
N5    N     N_2   0.514164 0.979739 0.529934 -0.095200
N6    N     N_2   0.485501 0.020222 0.469921 -0.095509
O1    O     O_R   0.494500 0.421750 0.612630 -0.575572
O2    O     O_R   0.505500 0.578250 0.387370 -0.583471
O3    O     O_R   0.504370 0.562470 0.618930 -0.621106
O4    O     O_R   0.495630 0.437530 0.381070 -0.629049
O5    O     O_R   0.679100 0.455920 0.498020 -0.662893
O6    O     O_R   0.320900 0.544080 0.501980 -0.659226
O7    O     O_R   0.688960 0.596630 0.504320 -0.556380
O8    O     O_R   0.311040 0.403370 0.495680 -0.556590
Zn1   Zn    Zn3+2 0.493410 0.406040 0.495790 1.007173
Zn2   Zn    Zn3+2 0.506590 0.593960 0.504210 1.009694
F1    F     F_    0.041941 0.362405 0.494245 -0.618654
F2    F     F_    0.958047 0.637761 0.505565 -0.621554
Br1   Br    Br    0.316857 0.304135 0.728467 -0.405295
Br2   Br    Br    0.687529 0.694652 0.272516 -0.420066
Br3   Br    Br    0.709989 0.131697 0.591717 -0.393289
Br4   Br    Br    0.290918 0.868340 0.407232 -0.401586

loop_
_geom_bond_atom_site_label_1
_geom_bond_atom_site_label_2
_ccdc_geom_bond_type
C14   H4    S    
C6    C8    A    
C5    H12   S    
C16   O6    A    
C26   H7    S    
C1    C21   S    
O5    Zn1   S    
C17   F2    S    
C25   C27   A    
C4    C22   A    
C4    Br2   S    
C26   C28   A    
C19   C20   S    
C29   H9    S    
C28   C30   A    
N3    Zn2   S    
C30   H10   S    
C8    Br3   S    
C12   H14   S    
C16   C18   S    
C16   O8    A    
C2    C22   S    
C7    Br4   S    
C13   H3    S    
C1    O1    A    
C28   N2    S    
C6    N4    A    
C2    O2    A    
C15   O7    A    
C19   H2    S    
C10   C12   A    
C8    C10   A    
C3    Br1   S    
C5    N3    A    
O3    Zn2   S    
C12   C14   A    
C23   H6    S    
C18   C20   D    
O4    Zn1   S    
C9    C11   A    
C21   C23   A    
C25   H8    S    
C22   C24   A    
C11   H13   S    
C3    C21   A    
C24   H5    S    
O1    Zn1   S    
C27   N1    S    
C10   N6    S    
C7    C9    A    
C11   C13   A    
C23   C25   A    
C9    N5    S    
C27   C29   A    
N4    Zn1   S    
C15   C17   S    
N5    N6    D    
C2    O4    A    
C3    C29   A    
C1    O3    A    
C5    C7    A    
O7    Zn2   S    
C14   N4    A    
O2    Zn2   S    
C17   C19   D    
O8    Zn1   S    
N1    N2    D    
C13   N3    A    
C20   H1    S    
C18   F1    S    
C4    C30   A    
O6    Zn2   S    
C24   C26   A    
C6    H11   S    
C15   O5    A    
