data_mof_unit_pretest_838.cif
_audit_creation_date              2012-12-10T18:58:14-0500
_audit_creation_method            fapswitch 2.2
_symmetry_space_group_name_H-M    P1
_symmetry_Int_Tables_number       1
_space_group_crystal_system       triclinic
_cell_length_a                    11.050127
_cell_length_b                    10.833283
_cell_length_c                    9.546218
_cell_angle_alpha                 89.841378
_cell_angle_beta                  102.618402
_cell_angle_gamma                 90.33339
_cell_volume                      1115.14776299

loop_
_atom_site_label
_atom_site_type_symbol
_atom_type_description
_atom_site_fract_x
_atom_site_fract_y
_atom_site_fract_z
_atom_type_partial_charge
C1    C     C_R   0.501432 0.262411 0.500510 0.790999
C2    C     C_R   0.511295 0.129416 0.503307 -0.090177
C3    C     C_R   0.531647 0.065080 0.383092 -0.223263
C4    C     C_R   0.529963 0.936592 0.382497 -0.231998
C5    C     C_R   0.509375 0.871148 0.502494 -0.089103
C6    C     C_R   0.503359 0.936267 0.626849 0.116225
C7    C     C_3   0.407225 0.930382 0.715350 -0.469297
C8    C     C_3   0.408918 0.070382 0.716058 -0.470660
C9    C     C_R   0.600765 0.542586 0.098811 0.249138
C10   C     C_R   0.406422 0.446035 0.050928 -0.096426
C11   C     C_R   0.406398 0.446039 0.902087 -0.082847
C12   C     C_R   0.262795 0.498930 0.441869 0.858632
C13   C     C_R   0.601049 0.541646 0.951550 0.200804
C14   C     C_3   0.657876 0.666878 0.957376 -0.569592
C15   C     C_3   0.654963 0.669678 0.116127 0.226983
C16   C     C_R   0.500650 0.737746 0.500060 0.800864
C17   C     C_R   0.737182 0.499080 0.558186 0.873852
C18   C     C_2   0.127870 0.494947 0.409279 -0.359960
C19   C     C_2   0.067390 0.491758 0.516062 -0.174904
C20   C     C_2   0.872092 0.497205 0.591168 -0.373411
C21   C     C_2   0.932790 0.488300 0.485096 -0.124818
C22   C     C_R   0.504282 0.063544 0.627112 0.132161
Cu1   Cu    Cu3+1 0.499990 0.499980 0.640670 0.940453
Cu2   Cu    Cu3+1 0.500010 0.500020 0.359330 0.950246
H1    H     H_    0.883075 0.480673 0.373814 0.221541
H2    H     H_    0.447186 0.110234 0.823953 0.197553
H3    H     H_    0.329723 0.403995 0.087226 0.146016
H4    H     H_    0.329668 0.403942 0.827364 0.136532
H5    H     H_    0.752897 0.664097 0.936279 0.211760
H6    H     H_    0.595599 0.735877 0.892907 0.181514
H7    H     H_    0.589192 0.737607 0.144530 0.080119
H8    H     H_    0.117228 0.493383 0.627720 0.177633
H9    H     H_    0.922077 0.504088 0.702423 0.145540
H10   H     H_    0.077710 0.494221 0.297789 0.157855
H11   H     H_    0.543197 0.113417 0.287351 0.164537
H12   H     H_    0.539330 0.889428 0.286064 0.145416
H13   H     H_    0.317870 0.890348 0.655791 0.200157
H14   H     H_    0.443284 0.890064 0.823369 0.188286
H15   H     H_    0.320453 0.111938 0.657262 0.194370
N1    N     N_R   0.500780 0.500930 0.148120 -0.217580
N2    N     N_R   0.500790 0.500890 0.852210 -0.180019
O1    O     O_R   0.500000 0.319640 0.618810 -0.579333
O2    O     O_R   0.500010 0.319680 0.381230 -0.588211
O3    O     O_R   0.320680 0.500000 0.575130 -0.586061
O4    O     O_R   0.320690 0.500040 0.337550 -0.587704
O5    O     O_R   0.499990 0.680320 0.618770 -0.578193
O6    O     O_R   0.500000 0.680360 0.381190 -0.587607
O7    O     O_R   0.679310 0.499960 0.662450 -0.582078
O8    O     O_R   0.679320 0.500000 0.424870 -0.555772
O9    O     O_3   0.774711 0.668752 0.206292 -0.562415
C23   C     C_3   0.817172 0.791428 0.232691 0.074859
H16   H     H_    0.759691 0.841135 0.296378 0.142438
H17   H     H_    0.814882 0.842035 0.130354 0.140392
C24   C     C_3   0.950384 0.790679 0.318631 -0.786720
H18   H     H_    0.009928 0.738350 0.260096 0.247975
H19   H     H_    0.985873 0.886836 0.335110 0.195415
H20   H     H_    0.954858 0.747402 0.425137 0.257881

loop_
_geom_bond_atom_site_label_1
_geom_bond_atom_site_label_2
_ccdc_geom_bond_type
C10   H3    S    
C2    C22   A    
C8    C22   S    
Cu1   Cu2   S    
C4    H12   S    
C15   H7    S    
C6    C7    S    
C12   O4    A    
C8    H15   S    
C8    H2    S    
Cu1   N2    S    
C17   O7    A    
C3    H11   S    
C23   C24   S    
C13   N2    A    
O9    C23   S    
C7    H13   S    
Cu2   O4    S    
C7    C8    S    
C12   O3    A    
Cu1   O5    S    
C13   C14   S    
C18   H10   S    
Cu1   O1    S    
C11   H4    S    
C14   H6    S    
C19   H8    S    
C16   O6    A    
C19   C21   S    
C7    H14   S    
C11   N2    A    
C2    C3    A    
C9    C15   S    
C5    C6    A    
C24   H19   S    
C10   C11   A    
C20   H9    S    
C14   H5    S    
C12   C18   S    
C23   H16   S    
C6    C22   A    
C1    O1    A    
C17   C20   S    
C20   C21   D    
C10   N1    A    
C1    C2    S    
C15   O9    S    
C16   O5    A    
Cu2   O8    S    
Cu2   O2    S    
C9    C13   A    
C14   C15   S    
C18   C19   D    
C5    C16   S    
C21   H1    S    
Cu1   O7    S    
Cu2   N1    S    
C24   H18   S    
Cu2   O6    S    
C1    O2    A    
C9    N1    A    
C17   O8    A    
Cu1   O3    S    
C3    C4    A    
C4    C5    A    
C23   H17   S    
C24   H20   S    
