data_mof_unit_pretest_221.cif
_audit_creation_date              2012-12-11T15:45:03-0500
_audit_creation_method            fapswitch 2.2
_symmetry_space_group_name_H-M    P1
_symmetry_Int_Tables_number       1
_space_group_crystal_system       triclinic
_cell_length_a                    6.921618
_cell_length_b                    16.870102
_cell_length_c                    17.071148
_cell_angle_alpha                 100.534582
_cell_angle_beta                  89.491539
_cell_angle_gamma                 90.568986
_cell_volume                      1959.62473155

loop_
_atom_site_label
_atom_site_type_symbol
_atom_type_description
_atom_site_fract_x
_atom_site_fract_y
_atom_site_fract_z
_atom_type_partial_charge
O1    O     O_R   0.494370 0.415690 0.413450 -0.541668
O2    O     O_R   0.819420 0.429360 0.578420 -0.541831
O3    O     O_R   0.994280 0.584310 0.586550 -0.541514
C1    C     C_R   0.647936 0.413333 0.604978 0.698024
O4    O     O_R   0.823790 0.406230 0.413570 -0.545466
O5    O     O_R   0.998670 0.561000 0.420530 -0.544011
C2    C     C_R   0.654844 0.383042 0.384888 0.684705
O6    O     O_R   0.489970 0.439000 0.579470 -0.541561
O7    O     O_3   0.662300 0.550810 0.502470 -0.363638
V1    V     V_3+5 0.935380 0.490570 0.499540 1.401613
O8    O     O_R   0.328650 0.570640 0.421580 -0.511613
C3    C     C_R   0.158840 0.587145 0.395426 0.745636
O9    O     O_R   0.324290 0.593770 0.586430 -0.547254
C4    C     C_R   0.155122 0.616666 0.615374 0.672928
V2    V     V_3+5 0.435930 0.509430 0.500460 1.425520
O10   O     O_3   0.159140 0.449190 0.497530 -0.373065
C5    C     C_R   0.312412 0.723680 0.717988 -0.160211
H1    H     H_    0.453509 0.704436 0.694451 0.115954
C6    C     C_R   0.301165 0.787592 0.782965 -0.151747
H2    H     H_    0.434207 0.815680 0.807387 0.118227
C7    C     C_R   0.121076 0.814823 0.815865 -0.046766
C8    C     C_R   0.952542 0.776514 0.781705 -0.158507
H3    H     H_    0.811414 0.795829 0.805148 0.116162
C9    C     C_R   0.963792 0.712644 0.716686 -0.151388
H4    H     H_    0.830737 0.684643 0.692169 0.116895
C10   C     C_R   0.143898 0.685242 0.683974 -0.042123
C11   C     C_R   0.135642 0.640708 0.335260 -0.153807
C12   C     C_R   0.130888 0.863257 0.167666 -0.066159
C13   C     C_R   0.349566 0.819322 0.263002 -0.190028
C14   C     C_R   0.304340 0.871434 0.211378 -0.164430
C15   C     C_R   0.000707 0.801753 0.178463 -0.212728
C16   C     C_R   0.045919 0.748551 0.230828 0.103510
C17   C     C_R   0.220896 0.757724 0.274581 0.043105
C18   C     C_R   0.263072 0.705341 0.329086 0.370181
C19   C     C_R   0.965834 0.631706 0.289060 -0.212131
C20   C     C_R   0.920583 0.685109 0.238645 -0.175115
H5    H     H_    0.864123 0.583301 0.292860 0.156140
H6    H     H_    0.487345 0.827265 0.293022 0.140887
H7    H     H_    0.787021 0.676409 0.205377 0.136997
H8    H     H_    0.409185 0.917835 0.204512 0.127780
H9    H     H_    0.868656 0.793370 0.144147 0.119696
C21   C     C_R   0.621822 0.360179 0.665441 -0.069966
C22   C     C_R   0.642981 0.139964 0.834665 -0.071079
C23   C     C_R   0.860587 0.192968 0.742117 -0.203143
C24   C     C_R   0.821283 0.139099 0.793526 -0.160555
C25   C     C_R   0.502388 0.195572 0.821500 -0.242024
C26   C     C_R   0.541927 0.250563 0.769933 0.160337
C27   C     C_R   0.722847 0.249562 0.730155 0.160775
C28   C     C_R   0.762400 0.304561 0.678598 -0.242427
C29   C     C_R   0.443496 0.361029 0.706560 -0.159597
C30   C     C_R   0.404179 0.307152 0.757961 -0.201897
H10   H     H_    0.899692 0.302514 0.647262 0.123886
H11   H     H_    0.331729 0.403193 0.698361 0.130742
H12   H     H_    0.999740 0.190685 0.712199 0.120300
H13   H     H_    0.265014 0.309426 0.787868 0.121688
H14   H     H_    0.933044 0.096928 0.801715 0.130200
H15   H     H_    0.365099 0.197619 0.852838 0.124635
C31   C     C_R   0.811968 0.276268 0.282199 -0.158423
H16   H     H_    0.952853 0.295507 0.305866 0.115789
C32   C     C_R   0.800868 0.212483 0.217089 -0.151493
H17   H     H_    0.933742 0.184432 0.192759 0.118070
C33   C     C_R   0.621105 0.185274 0.184007 -0.046942
C34   C     C_R   0.452748 0.223627 0.217938 -0.158126
C35   C     C_R   0.463848 0.287413 0.283048 -0.151426
H18   H     H_    0.330978 0.315467 0.307379 0.117381
C36   C     C_R   0.643615 0.314629 0.316123 -0.047040
O11   O     O_R   0.774880 0.061150 0.920630 -0.540063
O12   O     O_R   0.440980 0.093710 0.086500 -0.544588
O13   O     O_R   0.266190 0.938890 0.079390 -0.539136
C37   C     C_R   0.609906 0.116892 0.115210 0.684090
O14   O     O_R   0.445420 0.070740 0.921670 -0.541265
O15   O     O_R   0.270660 0.915760 0.913380 -0.540057
C38   C     C_R   0.616894 0.086805 0.895127 0.701690
O16   O     O_R   0.770400 0.084270 0.086640 -0.540457
O17   O     O_3   0.602590 0.949210 0.997500 -0.367659
V3    V     V_3+5 0.329470 0.009420 0.000470 1.400216
O18   O     O_R   0.940650 0.906250 0.913470 -0.544421
C39   C     C_R   0.109851 0.883158 0.884731 0.684820
O19   O     O_R   0.936210 0.929220 0.078300 -0.540793
C40   C     C_R   0.106108 0.913879 0.105327 0.697917
V4    V     V_3+5 0.828930 0.990510 0.999490 1.400597
O20   O     O_3   0.105680 0.050790 0.002500 -0.368585
H19   H     H_    0.311866 0.204389 0.194267 0.116265
O21   O     O_3   0.429600 0.715387 0.374625 -0.552963
C41   C     C_3   0.415289 0.784487 0.435809 0.062046
H20   H     H_    0.300542 0.827874 0.426652 0.102800
H21   H     H_    0.555000 0.817792 0.438453 0.138965
C42   C     C_3   0.381049 0.759471 0.515941 -0.683022
H22   H     H_    0.494698 0.716926 0.526971 0.237392
H23   H     H_    0.385417 0.813389 0.564211 0.168763
H24   H     H_    0.236734 0.730444 0.516593 0.190582

loop_
_geom_bond_atom_site_label_1
_geom_bond_atom_site_label_2
_ccdc_geom_bond_type
C22   C38   S    
C19   C20   A    
O15   V3    S    
V4    O20   S    
C15   C16   A    
O18   C39   A    
C13   C14   A    
C5    C10   A    
C16   C20   A    
C19   H5    S    
C9    C10   A    
O5    C3    A    
O14   V3    S    
C31   C32   A    
V2    O10   S    
C13   C17   A    
C33   C37   S    
O13   V3    S    
C32   C33   A    
O15   C39   A    
O8    V2    S    
C31   C36   A    
C6    H2    S    
C24   H14   S    
C13   H6    S    
C37   O16   A    
O11   C38   A    
O7    V1    S    
C1    O6    A    
O9    C4    A    
C18   O21   S    
C17   C18   A    
C41   H21   S    
C11   C18   A    
C29   H11   S    
C3    C11   S    
C9    H4    S    
V3    O20   S    
O4    C2    A    
O17   V4    S    
C26   C30   A    
C11   C19   A    
C31   H16   S    
C41   H20   S    
C20   H7    S    
C4    C10   S    
C34   C35   A    
C34   H19   S    
C32   H17   S    
C35   C36   A    
C7    C39   S    
O2    C1    A    
O17   V3    S    
C33   C34   A    
C26   C27   A    
C42   H24   S    
O18   V4    S    
C28   H10   S    
C5    H1    S    
C14   H8    S    
C29   C30   A    
O21   C41   S    
C22   C24   A    
O3    C4    A    
C21   C29   A    
O1    V2    S    
C27   C28   A    
C42   H23   S    
O11   V4    S    
O6    V2    S    
O9    V2    S    
C25   H15   S    
C8    C9    A    
O16   V4    S    
O2    V1    S    
C23   C24   A    
O19   V4    S    
C41   C42   S    
C25   C26   A    
C15   H9    S    
C6    C7    A    
O1    C2    A    
C12   C15   A    
O5    V1    S    
O8    C3    A    
O12   V3    S    
C16   C17   A    
C12   C14   A    
O7    V2    S    
O4    V1    S    
O3    V1    S    
V1    O10   S    
C35   H18   S    
C2    C36   S    
C1    C21   S    
C5    C6    A    
C30   H13   S    
C12   C40   S    
C22   C25   A    
C21   C28   A    
O19   C40   A    
C23   H12   S    
C42   H22   S    
O12   C37   A    
O14   C38   A    
C8    H3    S    
O13   C40   A    
C7    C8    A    
C23   C27   A    
