data_mof_unit_pretest_853.cif
_audit_creation_date              2013-03-05T15:44:48-0500
_audit_creation_method            fapswitch 2.2
_symmetry_space_group_name_H-M    P1
_symmetry_Int_Tables_number       1
_space_group_crystal_system       triclinic
_cell_length_a                    12.913195
_cell_length_b                    13.065076
_cell_length_c                    15.308475
_cell_angle_alpha                 116.086221
_cell_angle_beta                  63.238988
_cell_angle_gamma                 97.075656
_cell_volume                      2062.14567979

loop_
_atom_site_label
_atom_site_type_symbol
_atom_site_description
_atom_site_fract_x
_atom_site_fract_y
_atom_site_fract_z
_atom_type_partial_charge
C1    C     C_R   0.000354 0.832223 0.052815 -0.126862
H1    H     H_    0.030502 0.894174 0.109184 0.098966
N1    N     N_R   0.037310 0.720000 0.995790 -0.045086
C2    C     C_R   0.677730 0.478339 0.219580 -0.094229
H2    H     H_    0.608291 0.450635 0.195989 0.093427
N2    N     N_R   0.790790 0.446160 0.152010 -0.040680
C3    C     C_R   0.756862 0.518552 0.891358 -0.137979
H3    H     H_    0.781114 0.547053 0.828740 0.133692
N3    N     N_R   0.824890 0.517960 0.936420 -0.046861
C4    C     C_R   0.010279 0.701428 0.304672 -0.145780
H4    H     H_    0.986029 0.669110 0.364684 0.099414
N4    N     N_R   0.003210 0.648190 0.211380 -0.038660
C5    C     C_R   0.677172 0.419763 0.988293 -0.134216
H5    H     H_    0.631035 0.356161 0.014768 0.092764
N5    N     N_R   0.774330 0.457010 0.995840 -0.048447
C6    C     C_R   0.091060 0.801707 0.208510 -0.150925
H6    H     H_    0.141920 0.862211 0.179605 0.108589
N6    N     N_R   0.053760 0.709140 0.151960 -0.039485
C7    C     C_R   0.780112 0.562343 0.314415 -0.118638
H7    H     H_    0.805704 0.611467 0.378086 0.095110
N7    N     N_R   0.853860 0.498840 0.211410 -0.042144
C8    C     C_R   0.899093 0.747264 0.957705 -0.078684
H8    H     H_    0.833945 0.729426 0.928416 0.140416
N8    N     N_R   0.974240 0.667310 0.936390 -0.050063
C9    C     C_R   0.911177 0.852027 0.032616 0.055538
C10   C     C_R   0.668361 0.553162 0.322162 0.035180
C11   C     C_R   0.664370 0.456368 0.922071 0.145976
C12   C     C_R   0.064340 0.797607 0.303818 0.046496
C13   C     C_R   0.339488 0.514248 0.947592 -0.107131
H9    H     H_    0.398976 0.551666 0.895643 0.093316
N9    N     N_R   0.225670 0.542990 0.004160 -0.046337
C14   C     C_R   0.961551 0.180181 0.781497 -0.145456
H10   H     H_    0.922926 0.112317 0.804347 0.122505
N10   N     N_R   0.946240 0.290860 0.848040 -0.045645
C15   C     C_R   0.198061 0.515082 0.697422 -0.110190
H11   H     H_    0.157170 0.504721 0.647118 0.126673
N11   N     N_R   0.146140 0.501160 0.788590 -0.047219
C16   C     C_R   0.053423 0.254853 0.086703 -0.118041
H12   H     H_    0.090384 0.273450 0.142277 0.097234
N12   N     N_R   0.025760 0.332690 0.063610 -0.042428
C17   C     C_R   0.955104 0.171253 0.990834 -0.091576
H13   H     H_    0.902783 0.112599 0.956402 0.112530
N13   N     N_R   0.962690 0.280000 0.004210 -0.044110
C18   C     C_R   0.299842 0.596196 0.790695 -0.132226
H14   H     H_    0.353701 0.654571 0.823612 0.089547
N14   N     N_R   0.209210 0.553840 0.847990 -0.042246
C19   C     C_R   0.259958 0.414686 0.045355 -0.151140
H15   H     H_    0.249557 0.359831 0.084090 0.099171
N15   N     N_R   0.175110 0.482040 0.063580 -0.042452
C20   C     C_R   0.039745 0.280956 0.683891 -0.031619
N16   N     N_R   0.996790 0.351810 0.788620 -0.059535
Ni1   Ni    Ni4+2 0.130310 0.630310 0.999970 0.211448
Ni2   Ni    Ni4+2 0.869690 0.369690 0.000030 0.225428
Ni3   Ni    Ni4+2 0.985640 0.509470 0.863740 0.246588
Ni4   Ni    Ni4+2 0.014360 0.490530 0.136260 0.215319
C21   C     C_R   0.363558 0.431412 0.970366 0.147920
C22   C     C_R   0.022569 0.172294 0.678367 -0.050559
C23   C     C_R   0.294808 0.573462 0.695716 0.038226
C24   C     C_R   0.012503 0.151152 0.040609 0.038101
C25   C     C_R   0.986135 0.987601 0.435785 -0.160470
H16   H     H_    0.939651 0.990562 0.392832 0.119820
C26   C     C_R   0.970128 0.078136 0.531744 -0.133961
H17   H     H_    0.912013 0.152239 0.563240 0.120847
C27   C     C_R   0.031182 0.073610 0.585464 0.164386
C28   C     C_R   0.101829 0.976940 0.549077 -0.140515
H18   H     H_    0.146903 0.974599 0.593297 0.126787
C29   C     C_R   0.115365 0.884094 0.453681 -0.183313
H19   H     H_    0.169208 0.807467 0.423540 0.124103
C30   C     C_R   0.059353 0.892136 0.397219 0.143111
C31   C     C_R   0.565446 0.659166 0.522800 -0.161316
H20   H     H_    0.644382 0.692462 0.527900 0.113463
C32   C     C_R   0.472010 0.662679 0.616691 -0.163121
H21   H     H_    0.482746 0.697737 0.690234 0.113461
C33   C     C_R   0.372952 0.608813 0.611188 0.134372
C34   C     C_R   0.359798 0.572149 0.515942 -0.153205
H22   H     H_    0.282271 0.535848 0.509660 0.118679
C35   C     C_R   0.453423 0.568148 0.422068 -0.156935
H23   H     H_    0.444216 0.529202 0.347654 0.111366
C36   C     C_R   0.560559 0.600213 0.423012 0.137470
C37   C     C_2   0.478302 0.387195 0.939225 -0.196949
H24   H     H_    0.481534 0.339410 0.980721 0.127470
C38   C     C_2   0.571879 0.432514 0.889129 -0.186593
H25   H     H_    0.570170 0.475976 0.843570 0.130932
C39   C     C_2   0.830605 0.958210 0.093166 -0.156654
C40   C     C_2   0.819052 0.035684 0.191109 -0.101200
H26   H     H_    0.866948 0.026079 0.230252 0.107631
C41   C     C_2   0.065462 0.314789 0.596878 0.931396
O1    O     O_2   0.144380 0.262186 0.506351 -0.634802
O2    O     O_R   0.995742 0.404167 0.617412 -0.832232
H27   H     H_    0.020176 0.418481 0.551138 0.315203
C42   C     C_2   0.757584 0.979961 0.049763 1.009228
O3    O     O_2   0.774781 0.920326 0.955814 -0.683996
O4    O     O_R   0.670500 0.071409 0.115962 -0.783925
H28   H     H_    0.627852 0.078779 0.076985 0.316536

loop_
_geom_bond_atom_site_label_1
_geom_bond_atom_site_label_2
_geom_bond_distance
_ccdc_geom_bond_type
C6    C12   1.364365 A    
C41   O1    1.222498 D    
O4    H28   1.013957 S    
C17   H13   1.076795 S    
C7    H7    1.076497 S    
N9    Ni1   1.817572 S    
N6    Ni1   1.877149 S    
C3    H3    1.081875 S    
C19   N15   1.341271 A    
C35   H23   1.080755 S    
N10   N16   1.364514 A    
C26   H17   1.084257 S    
C15   C23   1.377180 A    
N5    Ni2   1.817571 S    
C7    N7    1.331736 A    
C16   H12   1.079774 S    
C37   H24   1.083571 S    
N8    Ni3   1.849746 S    
N14   Ni1   1.876455 S    
C3    C11   1.377965 A    
C25   C26   1.363249 A    
C1    H1    1.077948 S    
C7    C10   1.388037 A    
C26   C27   1.392657 A    
N13   Ni2   1.816947 S    
N12   N13   1.393684 A    
C15   H11   1.070993 S    
C18   C23   1.380962 A    
C6    H6    1.081665 S    
C28   C29   1.378092 A    
C8    C9    1.393201 A    
C9    C39   1.490810 S    
C31   H20   1.080234 S    
C39   C42   1.485815 S    
C5    H5    1.080035 S    
C1    C9    1.397515 A    
C17   N13   1.340923 A    
N1    N8    1.393683 A    
C14   C22   1.371363 A    
N9    N15   1.364529 A    
C18   N14   1.337216 A    
C35   C36   1.399851 A    
C33   C34   1.404650 A    
C29   H19   1.083951 S    
C39   C40   1.340135 D    
C17   C24   1.389794 A    
C32   C33   1.400620 A    
C42   O3    1.222437 D    
N7    Ni4   1.851813 S    
C2    H2    1.078043 S    
C40   H26   1.084585 S    
N2    N7    1.393666 A    
C25   H16   1.085215 S    
C1    N1    1.345781 A    
C14   N10   1.327176 A    
C34   H22   1.079830 S    
C13   H9    1.077388 S    
C42   O4    1.399630 S    
C19   H15   1.077776 S    
N12   Ni4   1.849745 S    
C12   C30   1.399125 S    
C20   N16   1.324924 A    
C34   C35   1.383639 A    
C4    N4    1.326620 A    
C20   C41   1.470818 S    
N11   Ni3   1.851811 S    
C2    N2    1.336790 A    
C28   H18   1.084147 S    
C5    N5    1.324727 A    
C8    N8    1.343180 A    
N2    Ni2   1.876455 S    
O2    H27   1.013849 S    
C18   H14   1.079935 S    
C23   C33   1.463181 S    
C22   C27   1.406275 S    
C4    C12   1.362579 A    
C3    N3    1.341537 A    
C15   N11   1.334540 A    
C31   C36   1.403871 A    
C20   C22   1.380424 A    
C11   C38   1.445814 S    
C32   H21   1.080716 S    
C2    C10   1.394385 A    
N1    Ni1   1.816945 S    
C13   C21   1.379034 A    
C10   C36   1.462882 S    
C21   C37   1.445348 S    
N16   Ni3   1.851179 S    
C27   C28   1.394715 A    
C41   O2    1.397953 S    
N3    N5    1.364528 A    
C13   N9    1.324733 A    
N15   Ni4   1.851346 S    
C14   H10   1.078876 S    
C16   N12   1.343929 A    
C25   C30   1.392263 A    
C37   C38   1.336949 D    
N4    Ni4   1.851180 S    
C4    H4    1.081597 S    
C16   C24   1.389752 A    
N10   Ni2   1.877150 S    
C6    N6    1.324879 A    
C38   H25   1.083778 S    
N4    N6    1.364516 A    
C8    H8    1.078223 S    
C5    C11   1.371341 A    
C31   C32   1.384803 A    
N3    Ni3   1.851347 S    
C29   C30   1.393861 A    
N11   N14   1.393666 A    
C19   C21   1.385971 A    
