data_mof_unit_pretest_160.cif
_audit_creation_date              2012-12-11T16:28:22-0500
_audit_creation_method            fapswitch 2.2
_symmetry_space_group_name_H-M    P1
_symmetry_Int_Tables_number       1
_space_group_crystal_system       triclinic
_cell_length_a                    16.475536
_cell_length_b                    7.247798
_cell_length_c                    15.272469
_cell_angle_alpha                 90.001079
_cell_angle_beta                  94.672302
_cell_angle_gamma                 90.002607
_cell_volume                      1817.64585115

loop_
_atom_site_label
_atom_site_type_symbol
_atom_type_description
_atom_site_fract_x
_atom_site_fract_y
_atom_site_fract_z
_atom_type_partial_charge
O1    O     O_R   0.663460 0.361760 0.165970 -0.535992
O2    O     O_R   0.336540 0.638240 0.834030 -0.534956
O3    O     O_R   0.836540 0.861760 0.334030 -0.535170
O4    O     O_R   0.163460 0.138240 0.665970 -0.534475
O5    O     O_R   0.827100 0.689870 0.163730 -0.525077
O6    O     O_R   0.172900 0.310130 0.836270 -0.524559
O7    O     O_R   0.672900 0.189870 0.336270 -0.522408
O8    O     O_R   0.327100 0.810130 0.663730 -0.524627
H1    H     H_    0.214428 0.990377 0.506143 0.129438
H2    H     H_    0.785590 0.009489 0.493896 0.126163
H3    H     H_    0.285548 0.493260 0.993797 0.129387
H4    H     H_    0.714446 0.505631 0.006188 0.126573
C1    C     C_R   0.853356 0.522929 0.143678 0.694327
C2    C     C_R   0.146640 0.477070 0.856316 0.696331
C3    C     C_R   0.646641 0.022926 0.356318 0.696821
C4    C     C_R   0.353358 0.977073 0.643681 0.696260
O9    O     O_R   0.663490 0.691370 0.155500 -0.538556
O10   O     O_R   0.336510 0.308630 0.844500 -0.537928
O11   O     O_R   0.836510 0.191370 0.344500 -0.534957
O12   O     O_R   0.163490 0.808630 0.655500 -0.538092
O13   O     O_R   0.671770 0.863320 0.325740 -0.524255
O14   O     O_R   0.328230 0.136680 0.674260 -0.523756
O15   O     O_R   0.828230 0.363320 0.174260 -0.524660
O16   O     O_R   0.171770 0.636680 0.825740 -0.523985
C5    C     C_R   0.634559 0.523010 0.135676 0.663077
C6    C     C_R   0.365436 0.476990 0.864322 0.666041
C7    C     C_R   0.865453 0.023027 0.364311 0.665311
C8    C     C_R   0.134550 0.976972 0.635696 0.665179
O17   O     O_3   0.752910 0.528800 0.305860 -0.363990
O18   O     O_3   0.247090 0.471200 0.694140 -0.367142
O19   O     O_3   0.747090 0.028800 0.194140 -0.369205
O20   O     O_3   0.252910 0.971200 0.805860 -0.367504
V1    V     V_3+5 0.749460 0.803010 0.239640 1.522012
V2    V     V_3+5 0.250540 0.196990 0.760360 1.518979
V3    V     V_3+5 0.750540 0.303010 0.260360 1.533958
V4    V     V_3+5 0.249460 0.696990 0.739640 1.518145
C9    C     C_1   0.468846 0.994790 0.530133 0.160708
C10   C     C_1   0.531154 0.005212 0.469868 0.163504
C11   C     C_1   0.031145 0.494785 0.969857 0.161038
C12   C     C_1   0.968836 0.505214 0.030121 0.161590
H5    H     H_    0.752291 0.989978 0.641717 0.221894
H6    H     H_    0.247762 0.011157 0.358388 0.225130
H7    H     H_    0.747739 0.483238 0.858469 0.206927
H8    H     H_    0.252224 0.515763 0.141506 0.224850
C13   C     C_R   0.040849 0.020567 0.319599 -0.224738
C14   C     C_R   0.959195 0.980154 0.680452 -0.215934
C15   C     C_R   0.459156 0.522446 0.180350 -0.224987
C16   C     C_R   0.540802 0.477938 0.819620 -0.209077
C17   C     C_R   0.123910 0.021851 0.301997 0.494625
C18   C     C_R   0.876148 0.979493 0.698092 0.465672
C19   C     C_R   0.376094 0.525131 0.197919 0.494075
C20   C     C_R   0.623850 0.475453 0.802002 0.456849
C21   C     C_R   0.184011 0.011008 0.370798 -0.129933
C22   C     C_R   0.816035 0.989952 0.629283 -0.116445
C23   C     C_R   0.315978 0.514635 0.129116 -0.128940
C24   C     C_R   0.683987 0.485033 0.870829 -0.151395
C25   C     C_R   0.163831 0.999030 0.456618 -0.236887
C26   C     C_R   0.836194 0.001166 0.543428 -0.192731
C27   C     C_R   0.336153 0.501649 0.043325 -0.236482
C28   C     C_R   0.663833 0.497802 0.956645 -0.214054
C29   C     C_R   0.081892 0.998896 0.478088 0.080636
C30   C     C_R   0.918126 0.001202 0.521940 0.074775
C31   C     C_R   0.418099 0.500193 0.021887 0.079802
C32   C     C_R   0.581891 0.499691 0.978096 0.076987
C33   C     C_R   0.018119 0.010818 0.408980 -0.034762
C34   C     C_R   0.981903 0.989420 0.591049 -0.036073
C35   C     C_R   0.481883 0.511888 0.090991 -0.034938
C36   C     C_R   0.518100 0.488219 0.908993 -0.035297
C37   C     C_R   0.064535 0.987420 0.567779 -0.117256
C38   C     C_R   0.935476 0.012591 0.432237 -0.117601
C39   C     C_R   0.435455 0.487523 0.932233 -0.119924
C40   C     C_R   0.564538 0.512462 0.067757 -0.119913
C41   C     C_1   0.416029 0.986231 0.581543 -0.105805
C42   C     C_1   0.583970 0.013768 0.418457 -0.099019
C43   C     C_1   0.083964 0.486224 0.918450 -0.105875
C44   C     C_1   0.916022 0.513775 0.081534 -0.104521
S1    S     S_3+6 0.155169 0.036588 0.193580 0.024563
O21   O     O_2   0.123509 0.871694 0.141739 -0.326222
O22   O     O_2   0.120610 0.209231 0.150588 -0.339886
O23   O     O_3   0.257379 0.042005 0.194890 -0.485321
H9    H     H_    0.268782 0.059199 0.132710 0.361711
S2    S     S_3+6 0.844924 0.966216 0.806574 -0.002148
O24   O     O_2   0.879583 0.794276 0.850151 -0.355635
O25   O     O_2   0.876499 0.131919 0.857849 -0.319832
O26   O     O_3   0.742720 0.960595 0.805300 -0.497802
H10   H     H_    0.731332 0.945450 0.867590 0.362825
S3    S     S_3+6 0.344849 0.541013 0.306305 0.024263
O27   O     O_2   0.375741 0.375560 0.358211 -0.326056
O28   O     O_2   0.380162 0.712979 0.349261 -0.340341
O29   O     O_3   0.242667 0.548810 0.304928 -0.485444
H11   H     H_    0.231282 0.564518 0.367187 0.361701
S4    S     S_3+6 0.654936 0.460068 0.693497 0.038090
O30   O     O_2   0.621375 0.285803 0.651281 -0.312299
O31   O     O_2   0.621896 0.622159 0.640446 -0.332515
O32   O     O_3   0.757096 0.456735 0.693640 -0.476718
H12   H     H_    0.774247 0.586955 0.702081 0.357566
C45   C     C_1   0.982176 0.027242 0.243761 0.401015
N1    N     N_1   0.936449 0.032228 0.182117 -0.268179
C46   C     C_1   0.017879 0.973338 0.756277 0.405170
N2    N     N_1   0.063614 0.968215 0.817912 -0.267557
C47   C     C_1   0.517827 0.528112 0.256210 0.399952
N3    N     N_1   0.563552 0.532282 0.317870 -0.264567
C48   C     C_1   0.482103 0.471958 0.743787 0.398018
N4    N     N_1   0.436359 0.467528 0.682146 -0.267531

loop_
_geom_bond_atom_site_label_1
_geom_bond_atom_site_label_2
_ccdc_geom_bond_type
C26   C30   A    
C14   C46   S    
C47   N3    T    
C15   C47   S    
C23   C27   A    
C8    C37   S    
O10   C6    A    
S3    O27   D    
O6    V2    S    
C45   N1    T    
S1    O21   D    
C1    O15   A    
O16   V4    S    
C32   C36   A    
H2    C26   S    
C14   C34   A    
C16   C20   A    
H6    C21   S    
C10   C42   T    
C34   C37   A    
O13   V1    S    
O3    V1    S    
O2    V4    S    
C33   C38   A    
C30   C38   A    
C35   C40   A    
O8    V4    S    
C2    O16   A    
O32   H12   S    
O5    V1    S    
O19   V1    S    
C11   C43   T    
O11   C7    A    
O5    C1    A    
O7    C3    A    
O8    C4    A    
O1    C5    A    
C6    C39   S    
O9    V1    S    
H3    C27   S    
C15   C35   A    
O4    C8    A    
C14   C18   A    
O4    V2    S    
S1    O22   D    
O14   V2    S    
C31   C35   A    
C30   C34   A    
C4    C41   S    
C18   S2    S    
H1    C25   S    
C19   S3    S    
C11   C12   S    
C21   C25   A    
C15   C19   A    
O12   C8    A    
O26   H10   S    
C16   C48   S    
S4    O32   S    
C12   C44   T    
O20   V2    S    
C9    C10   S    
O6    C2    A    
C46   N2    T    
C1    C44   S    
C13   C17   A    
S4    O31   D    
O2    C6    A    
C5    C40   S    
C18   C22   A    
C16   C36   A    
O10   V2    S    
C7    C38   S    
H4    C28   S    
C31   C39   A    
S2    O25   D    
S3    O28   D    
C13   C33   A    
C20   S4    S    
O1    V3    S    
C22   C26   A    
S1    O23   S    
C29   C37   A    
C9    C41   T    
C4    O14   A    
O7    V3    S    
O23   H9    S    
C25   C29   A    
S2    O26   S    
O17   V3    S    
C27   C31   A    
O18   V4    S    
C28   C32   A    
O9    C5    A    
C2    C43   S    
O3    C7    A    
O11   V3    S    
H8    C23   S    
O29   H11   S    
C36   C39   A    
C17   C21   A    
S4    O30   D    
C17   S1    S    
C19   C23   A    
C32   C40   A    
O15   V3    S    
H5    C22   S    
O12   V4    S    
C29   C33   A    
H7    C24   S    
C3    O13   A    
C3    C42   S    
C24   C28   A    
S2    O24   D    
S3    O29   S    
C48   N4    T    
C13   C45   S    
C20   C24   A    
