data_mof_unit_pretest_643.cif
_audit_creation_date              2012-12-10T18:57:11-0500
_audit_creation_method            fapswitch 2.2
_symmetry_space_group_name_H-M    P1
_symmetry_Int_Tables_number       1
_space_group_crystal_system       triclinic
_cell_length_a                    10.71259
_cell_length_b                    9.849
_cell_length_c                    10.640489
_cell_angle_alpha                 90.154925
_cell_angle_beta                  90.156526
_cell_angle_gamma                 89.944527
_cell_volume                      1122.65108237

loop_
_atom_site_label
_atom_site_type_symbol
_atom_type_description
_atom_site_fract_x
_atom_site_fract_y
_atom_site_fract_z
_atom_type_partial_charge
C1    C     C_R   0.259909 0.499994 0.500240 0.889871
C2    C     C_R   0.740071 0.499906 0.500422 0.910055
C3    C     C_R   0.592245 0.072000 0.559924 -0.037902
C4    C     C_R   0.407687 0.071794 0.440222 -0.034234
C5    C     C_R   0.592312 0.928195 0.559781 -0.027682
C6    C     C_R   0.407731 0.928001 0.440122 -0.058186
C7    C     C_R   0.495919 0.499963 0.260364 0.974746
C8    C     C_R   0.496617 0.500276 0.739659 0.925321
C9    C     C_R   0.564210 0.588715 0.064179 -0.039363
C10   C     C_R   0.563218 0.590337 0.936640 0.028038
C11   C     C_R   0.485263 0.502055 0.128585 -0.135560
C12   C     C_R   0.485082 0.503061 0.871275 -0.199383
C13   C     C_R   0.389545 0.431117 0.065221 0.107304
C14   C     C_R   0.389740 0.431138 0.933386 0.143528
C15   C     C_3   0.701477 0.608734 0.928376 0.167263
C16   C     C_3   0.702820 0.607986 0.071483 0.158396
C17   C     C_R   0.063925 0.377749 0.481848 -0.127190
C18   C     C_R   0.936132 0.377733 0.481702 -0.122784
C19   C     C_R   0.872527 0.499817 0.501254 -0.014242
C20   C     C_R   0.127429 0.499923 0.501100 -0.011250
C21   C     C_R   0.935995 0.621832 0.521499 -0.142646
C22   C     C_R   0.063839 0.621903 0.521281 -0.160184
H1    H     H_    0.749652 0.521442 0.882910 0.154462
H2    H     H_    0.728901 0.706407 0.115652 0.177293
H3    H     H_    0.112553 0.282747 0.465917 0.167169
H4    H     H_    0.887594 0.282775 0.465513 0.166915
H5    H     H_    0.887309 0.716732 0.537807 0.170771
H6    H     H_    0.112433 0.716857 0.537314 0.165931
H7    H     H_    0.666011 0.126416 0.607962 0.144332
H8    H     H_    0.333727 0.125986 0.392562 0.150089
H9    H     H_    0.666304 0.873921 0.607327 0.176539
H10   H     H_    0.333960 0.873578 0.392099 0.141569
N1    N     N_R   0.500000 0.857200 0.500000 -0.093825
N2    N     N_R   0.500000 0.142810 0.500000 -0.087990
O1    O     O_R   0.316770 0.614620 0.499990 -0.638012
O2    O     O_R   0.683230 0.614620 0.500010 -0.627484
O3    O     O_R   0.316800 0.385290 0.500000 -0.621829
O4    O     O_R   0.683200 0.385290 0.500000 -0.630021
O5    O     O_R   0.500000 0.614690 0.316780 -0.623372
O6    O     O_R   0.500000 0.614690 0.683220 -0.584806
O7    O     O_R   0.500020 0.385360 0.316780 -0.584159
O8    O     O_R   0.499980 0.385360 0.683220 -0.603346
Zn1   Zn    Zn3+2 0.500000 0.653120 0.500000 0.990819
Zn2   Zn    Zn3+2 0.500000 0.346880 0.500000 1.002710
I1    I     I_    0.246581 0.327606 0.167104 -0.273659
I2    I     I_    0.248203 0.325732 0.829367 -0.239731
Cl1   Cl    Cl    0.740793 0.769962 0.863659 -0.608529
Cl2   Cl    Cl    0.784061 0.464643 0.134744 -0.585752

loop_
_geom_bond_atom_site_label_1
_geom_bond_atom_site_label_2
_ccdc_geom_bond_type
C6    H10   S    
O4    Zn2   S    
C1    O3    A    
O1    Zn1   S    
C9    C10   A    
C2    O4    A    
C18   H4    S    
C6    N1    A    
C15   Cl1   S    
C8    C12   S    
C17   H3    S    
C16   Cl2   S    
O3    Zn2   S    
C15   H1    S    
C17   C18   A    
C21   H5    S    
C14   I2    S    
C22   H6    S    
C13   C14   A    
C13   I1    S    
C11   C13   A    
O8    Zn2   S    
C10   C12   A    
C4    C6    A    
C19   C21   A    
C9    C16   S    
C8    O8    A    
C7    C11   S    
C10   C15   S    
C9    C11   A    
O7    Zn2   S    
C4    N2    A    
C5    H9    S    
C15   C16   S    
N1    Zn1   S    
C12   C14   A    
C17   C20   A    
N2    Zn2   S    
C1    O1    A    
C16   H2    S    
C18   C19   A    
C2    O2    A    
C3    H7    S    
C7    O5    A    
C1    C20   S    
O5    Zn1   S    
C8    O6    A    
C3    N2    A    
C3    C5    A    
C2    C19   S    
C21   C22   A    
O6    Zn1   S    
C4    H8    S    
C7    O7    A    
C20   C22   A    
O2    Zn1   S    
C5    N1    A    
