data_mof_unit_pretest_1284.cif
_audit_creation_date              2012-12-11T18:11:29-0500
_audit_creation_method            fapswitch 2.2
_symmetry_space_group_name_H-M    P1
_symmetry_Int_Tables_number       1
_space_group_crystal_system       triclinic
_cell_length_a                    8.223022
_cell_length_b                    12.934107
_cell_length_c                    18.647051
_cell_angle_alpha                 98.523572
_cell_angle_beta                  91.224539
_cell_angle_gamma                 97.704842
_cell_volume                      1941.91855145

loop_
_atom_site_label
_atom_site_type_symbol
_atom_type_description
_atom_site_fract_x
_atom_site_fract_y
_atom_site_fract_z
_atom_type_partial_charge
Ba1   Ba    Ba6+2 0.852780 0.548340 0.465070 1.720215
Ba2   Ba    Ba6+2 0.337060 0.451750 0.534940 1.725138
C1    C     C_3   0.586521 0.873392 0.218879 0.220041
C2    C     C_R   0.931787 0.362813 0.090804 0.009070
C3    C     C_R   0.794881 0.373889 0.945541 0.041406
C4    C     C_3   0.109840 0.742546 0.261172 0.445216
C5    C     C_R   0.944732 0.433951 0.973431 0.038460
C6    C     C_R   0.732046 0.380143 0.876959 -0.046868
C7    C     C_R   0.822189 0.438551 0.830044 -0.068391
C8    C     C_R   0.975234 0.497883 0.855271 0.005753
C9    C     C_R   0.031952 0.500573 0.928578 0.019680
C10   C     C_R   0.766385 0.436079 0.757784 -0.013981
C11   C     C_R   0.873567 0.479131 0.708939 -0.233344
C12   C     C_3   0.637465 0.813728 0.278684 0.413726
C13   C     C_R   0.022842 0.541909 0.732644 0.013675
C14   C     C_R   0.071297 0.554477 0.807384 -0.032426
C15   C     C_R   0.148544 0.501674 0.072861 0.034748
C16   C     C_3   0.093306 0.767763 0.184232 -0.251260
C17   C     C_R   0.209111 0.502614 0.145300 -0.036549
C18   C     C_R   0.116165 0.444794 0.193085 -0.026242
C19   C     C_R   0.980141 0.372794 0.163872 -0.001705
C20   C     C_R   0.213948 0.620477 0.835565 -0.038424
C21   C     C_R   0.264035 0.628714 0.908064 -0.072350
C22   C     C_R   0.176301 0.568686 0.956015 0.046376
C23   C     C_3   0.492059 0.307149 0.314722 0.326207
C24   C     C_R   0.231407 0.571493 0.029307 0.005788
C25   C     C_R   0.374379 0.636834 0.059854 -0.127414
C26   C     C_R   0.366994 0.557112 0.168138 -0.102914
C27   C     C_R   0.459264 0.607464 0.116966 0.404177
C28   C     C_3   0.235201 0.778453 0.612845 0.303882
C29   C     C_R   0.424611 0.558862 0.240601 -0.020162
C30   C     C_R   0.318394 0.517135 0.290248 -0.311284
C31   C     C_R   0.165850 0.458294 0.267704 0.041248
C32   C     C_R   0.760460 0.176873 0.516970 -0.264317
C33   C     C_R   0.428342 0.810301 0.463695 -0.328582
C34   C     C_3   0.487952 0.282822 0.232226 -0.339896
C35   C     C_R   0.391885 0.981623 0.426618 0.307820
C36   C     C_R   0.333605 0.874053 0.430240 -0.015589
C37   C     C_R   0.575467 0.849935 0.503607 0.036014
C38   C     C_R   0.636384 0.960489 0.506275 -0.074194
C39   C     C_R   0.546136 0.027666 0.467955 -0.142357
C40   C     C_3   0.276378 0.897959 0.626931 -0.261227
C41   C     C_R   0.614725 0.137105 0.476574 0.031551
C42   C     C_R   0.851659 0.113085 0.548996 0.006735
C43   C     C_R   0.787387 0.005676 0.545784 -0.060012
C44   C     C_3   0.912950 0.210057 0.361815 0.382215
C45   C     C_3   0.054756 0.241348 0.730475 0.396423
C46   C     C_3   0.825717 0.108110 0.318147 -0.287969
C47   C     C_3   0.760083 0.723363 0.686102 0.596255
C48   C     C_3   0.773194 0.762698 0.768689 0.281317
C49   C     C_3   0.075864 0.222711 0.808598 -0.284736
C50   C     C_3   0.547243 0.176528 0.699680 0.375030
C51   C     C_3   0.622063 0.103341 0.744438 0.338881
C52   C     C_R   0.006496 0.432101 0.045211 0.075755
H1    H     H_    0.724130 0.868007 0.318108 0.043803
H2    H     H_    0.885033 0.721769 0.666175 0.033863
H3    H     H_    0.558671 0.952333 0.243235 0.025904
H4    H     H_    0.812386 0.700420 0.797571 -0.087407
H5    H     H_    0.650703 0.778144 0.787978 0.074851
H6    H     H_    0.526608 0.789197 0.308539 -0.192253
H7    H     H_    0.474069 0.828515 0.189842 0.055154
H8    H     H_    0.369655 0.324831 0.332345 0.033481
H9    H     H_    0.582846 0.377742 0.332757 0.060241
H10   H     H_    0.395785 0.212681 0.213035 0.136231
H11   H     H_    0.454556 0.350326 0.207787 0.094823
H12   H     H_    0.388440 0.920680 0.662909 0.145594
H13   H     H_    0.610572 0.266495 0.213613 0.119784
H14   H     H_    0.192217 0.829654 0.173502 0.092061
H15   H     H_    0.145188 0.310765 0.723674 0.078632
H16   H     H_    0.928424 0.259265 0.721270 -0.121021
H17   H     H_    0.207760 0.224499 0.823040 0.178522
H18   H     H_    0.030353 0.286028 0.845921 0.033568
H19   H     H_    0.006412 0.145960 0.816577 0.185972
H20   H     H_    0.644194 0.206863 0.664359 -0.215660
H21   H     H_    0.446312 0.129789 0.663393 0.070552
H22   H     H_    0.734990 0.146321 0.773816 0.014460
H23   H     H_    0.298293 0.929856 0.575688 0.010139
H24   H     H_    0.655307 0.034750 0.707292 0.006684
H25   H     H_    0.037999 0.664215 0.263565 0.056972
H26   H     H_    0.835723 0.468587 0.652118 0.115413
H27   H     H_    0.613291 0.335850 0.861076 0.142621
H28   H     H_    0.912110 0.320871 0.196391 0.077040
H29   H     H_    0.288779 0.667782 0.802249 0.121775
H30   H     H_    0.359978 0.524285 0.346435 0.062336
H31   H     H_    0.717697 0.325175 0.976874 0.130235
H32   H     H_    0.831839 0.301267 0.072189 0.079862
H33   H     H_    0.375792 0.681386 0.923861 0.093837
H34   H     H_    0.172533 0.933504 0.652510 0.218739
H35   H     H_    0.241804 0.739098 0.273325 -0.111967
H36   H     H_    0.442890 0.693534 0.031314 0.109121
H37   H     H_    0.857217 0.958415 0.574266 0.111833
H38   H     H_    0.807956 0.259973 0.521725 0.035558
H39   H     H_    0.379851 0.728082 0.462611 0.058669
H40   H     H_    0.101057 0.696636 0.144478 0.076502
H41   H     H_    0.974299 0.795677 0.175232 0.212859
H42   H     H_    0.344127 0.743628 0.592863 -0.005795
H43   H     H_    0.133816 0.756973 0.571051 0.050807
H44   H     H_    0.594547 0.611940 0.709819 0.290211
H45   H     H_    0.822405 0.260673 0.382988 -0.019874
H46   H     H_    0.099659 0.825564 0.858672 0.336555
H47   H     H_    0.797123 0.939373 0.191829 0.301489
H48   H     H_    0.226473 0.037976 0.822758 0.404599
H49   H     H_    0.710781 0.627730 0.990148 0.343759
H50   H     H_    0.296958 0.007188 0.247427 0.342670
H51   H     H_    0.984397 0.193131 0.408690 0.080701
H52   H     H_    0.745527 0.126222 0.274411 0.102700
H53   H     H_    0.751541 0.060511 0.353473 0.044608
H54   H     H_    0.916496 0.060711 0.291556 0.179941
O1    O     O_2   0.873090 0.425890 0.325140 -0.494901
O2    O     O_2   0.195788 0.123481 0.554462 -0.462650
O3    O     O_3   0.082348 0.151164 0.682546 -0.557171
O4    O     O_3   0.122420 0.434370 0.414380 -0.490822
O5    O     O_3   0.578370 0.633800 0.536380 -0.434818
O6    O     O_2   0.341510 0.231850 0.465510 -0.397221
O7    O     O_3   0.533879 0.218522 0.342519 -0.611785
O8    O     O_2   0.428271 0.451648 0.757996 -0.495086
O9    O     O_3   0.481573 0.255710 0.745912 -0.590686
O10   O     O_3   0.659500 0.627100 0.368810 -0.496056
O11   O     O_2   0.754826 0.534124 0.245309 -0.412886
O12   O     O_3   0.680664 0.792384 0.650893 -0.626928
O13   O     O_3   0.020126 0.257646 0.315950 -0.617326
O14   O     O_3   0.719414 0.730405 0.247662 -0.543153
O15   O     O_2   0.848200 0.768190 0.534530 -0.493220
O16   O     O_3   0.081160 0.685950 0.404810 -0.517246
O17   O     O_2   0.991281 0.863419 0.447086 -0.432761
O18   O     O_3   0.673237 0.621086 0.671208 -0.751915
O19   O     O_2   0.926418 0.945712 0.733566 -0.303196
O20   O     O_2   0.866109 0.942515 0.861132 -0.257721
O21   O     O_3   0.102935 0.844361 0.809085 -0.487373
O22   O     O_3   0.708993 0.884169 0.168303 -0.681761
O23   O     O_3   0.047280 0.820099 0.309896 -0.500561
O24   O     O_2   0.525672 0.952155 0.825617 -0.232934
O25   O     O_2   0.509385 0.135021 0.879094 -0.305219
O26   O     O_3   0.291366 0.042896 0.779026 -0.485309
O27   O     O_2   0.791562 0.625753 0.122000 -0.296210
O28   O     O_2   0.633492 0.448590 0.102003 -0.317842
O29   O     O_3   0.648537 0.558681 0.996130 -0.541312
O30   O     O_2   0.087088 0.019716 0.390126 -0.311666
O31   O     O_2   0.263497 0.141374 0.343792 -0.294939
O32   O     O_3   0.268379 0.958750 0.283130 -0.580930
O33   O     O_2   0.316610 0.574140 0.674900 -0.462080
O34   O     O_3   0.067290 0.565720 0.585630 -0.505581
O35   O     O_3   0.530210 0.372990 0.631200 -0.439869
O36   O     O_3   0.189561 0.743249 0.677857 -0.573654
O37   O     O_3   0.611340 0.366290 0.463630 -0.502571
O38   O     O_3   0.108550 0.314140 0.595200 -0.502200
P1    P     P_3+3 0.041040 0.394770 0.336330 0.977965
P2    P     P_3+3 0.672880 0.754030 0.556100 1.031852
P3    P     P_3+3 0.118365 0.814072 0.398196 1.097860
P4    P     P_3+3 0.148670 0.605320 0.663680 1.001125
P5    P     P_3+3 0.056427 0.175808 0.593302 0.987088
P6    P     P_3+3 0.636488 0.611715 0.274873 1.044361
P7    P     P_3+3 0.523100 0.236405 0.437516 1.027330
P8    P     P_3+3 0.553211 0.380773 0.724525 0.985162
S1    S     S_3+6 0.917444 0.879208 0.793260 -0.066391
S2    S     S_3+6 0.486856 0.057010 0.810183 -0.032283
S3    S     S_3+6 0.640043 0.559499 0.086358 -0.079015
S4    S     S_3+6 0.257353 0.034352 0.363522 -0.087852

loop_
_geom_bond_atom_site_label_1
_geom_bond_atom_site_label_2
_ccdc_geom_bond_type
Ba2   P4    S    
C16   H41   S    
O16   P3    S    
C12   O14   S    
C25   C27   A    
C1    O22   S    
Ba1   O37   S    
C17   C18   A    
C44   H45   S    
C50   H21   S    
Ba1   O15   S    
C34   H13   S    
C50   C51   S    
Ba2   O37   S    
C5    C9    A    
C47   O18   S    
C28   H43   S    
Ba2   O4    S    
C24   C25   A    
C49   H17   S    
O27   S3    D    
C15   C24   A    
O5    P2    S    
C26   C27   A    
C22   C24   A    
C50   H20   S    
H49   O29   S    
Ba1   O4    S    
Ba2   O5    S    
C45   O3    S    
C47   O12   S    
C2    H32   S    
C16   H14   S    
C13   C14   A    
O25   S2    D    
C44   H51   S    
C9    C22   A    
C28   O36   S    
C25   H36   S    
O26   S2    S    
Ba1   Ba2   S    
C23   H9    S    
C45   H15   S    
C28   H42   S    
Ba1   O34   S    
C31   P1    S    
O20   S1    D    
O32   S4    S    
C46   H52   S    
O31   S4    D    
C6    C7    A    
C37   P2    S    
O36   P4    S    
C21   C22   A    
O13   P1    S    
C44   O13   S    
C7    C8    A    
O6    P7    D    
O8    P8    D    
C23   H8    S    
C3    H31   S    
H47   O22   S    
C1    H7    S    
C12   H1    S    
C11   H26   S    
C21   H33   S    
O7    P7    S    
Ba2   O35   S    
C39   C41   A    
O1    P1    D    
Ba1   O5    S    
C4    C16   S    
O33   P4    D    
C33   H39   S    
C38   C43   A    
C30   H30   S    
C44   C46   S    
C42   P5    S    
C6    H27   S    
C48   H4    S    
C33   C36   A    
C32   C42   A    
O2    P5    D    
O19   S1    D    
C37   C38   A    
C3    C5    A    
H46   O21   S    
C15   C17   A    
O35   P8    S    
C45   C49   S    
Ba1   O1    S    
H50   O32   S    
O14   P6    S    
C35   S4    S    
C33   C37   A    
H48   O26   S    
C45   H16   S    
C35   C36   A    
O28   S3    D    
O30   S4    D    
C29   C30   A    
C48   S1    S    
O15   P2    D    
C18   C19   A    
O10   P6    S    
C17   C26   A    
C1    C12   S    
O17   P3    D    
C40   H23   S    
C18   C31   A    
C1    H3    S    
C38   C39   A    
O12   P2    S    
C11   C13   A    
C16   H40   S    
Ba1   P1    S    
C51   H22   S    
C40   H34   S    
C49   H18   S    
C48   H5    S    
C47   H2    S    
C42   C43   A    
O21   S1    S    
O11   P6    D    
C14   C20   A    
C36   P3    S    
C2    C52   A    
C34   H11   S    
C26   C29   A    
C32   C41   A    
C49   H19   S    
C10   P8    S    
C4    O23   S    
O3    P5    S    
C3    C6    A    
C27   S3    S    
Ba2   O38   S    
C4    H35   S    
C12   H6    S    
O4    P1    S    
O29   S3    S    
C20   H29   S    
O34   P4    S    
C23   O7    S    
C51   H24   S    
Ba1   O16   S    
O37   P7    S    
C8    C14   A    
C30   C31   A    
C29   P6    S    
Ba2   O6    S    
C4    H25   S    
C46   H54   S    
Ba2   O34   S    
O24   S2    D    
C2    C19   A    
Ba1   O10   S    
C35   C39   A    
C43   H37   S    
C7    C10   A    
C32   H38   S    
O23   P3    S    
C8    C9    A    
C23   C34   S    
O38   P5    S    
C46   H53   S    
H44   O18   S    
C19   H28   S    
C51   S2    S    
C47   C48   S    
C50   O9    S    
O9    P8    S    
C40   H12   S    
Ba2   O33   S    
C20   C21   A    
C28   C40   S    
Ba1   P2    S    
C5    C52   A    
C10   C11   A    
C34   H10   S    
C41   P7    S    
C15   C52   A    
C13   P4    S    
