data_mof_unit_pretest_1832.cif
_audit_creation_date              2012-12-10T17:36:49-0500
_audit_creation_method            fapswitch 2.2
_symmetry_space_group_name_H-M    P1
_symmetry_Int_Tables_number       1
_space_group_crystal_system       triclinic
_cell_length_a                    21.400017
_cell_length_b                    21.400015
_cell_length_c                    55.810239
_cell_angle_alpha                 90.000271
_cell_angle_beta                  89.999797
_cell_angle_gamma                 89.998698
_cell_volume                      25558.8952643

loop_
_atom_site_label
_atom_site_type_symbol
_atom_type_description
_atom_site_fract_x
_atom_site_fract_y
_atom_site_fract_z
_atom_type_partial_charge
C1    C     C_R   0.120514 0.000186 0.500009 0.787562
C2    C     C_R   0.999814 0.120514 0.500009 0.787566
C3    C     C_R   0.879486 0.999814 0.500009 0.787562
C4    C     C_R   0.000186 0.879486 0.500009 0.787566
C5    C     C_R   0.620514 0.500187 0.000009 0.787556
C6    C     C_R   0.499812 0.620514 0.000009 0.787563
C7    C     C_R   0.379486 0.499813 0.000009 0.787556
C8    C     C_R   0.500188 0.379486 0.000009 0.787564
C9    C     C_3   0.940815 0.270623 0.502479 -0.188752
C10   C     C_3   0.729379 0.940815 0.502487 -0.188730
C11   C     C_3   0.059185 0.729377 0.502478 -0.188752
C12   C     C_3   0.270620 0.059186 0.502483 -0.188732
C13   C     C_3   0.440823 0.770625 0.002513 -0.188741
C14   C     C_3   0.229379 0.440814 0.002483 -0.188754
C15   C     C_3   0.559177 0.229375 0.002509 -0.188743
C16   C     C_3   0.770621 0.559187 0.002479 -0.188756
C17   C     C_3   0.976207 0.229517 0.520814 -0.141961
C18   C     C_3   0.770485 0.976224 0.520818 -0.141972
C19   C     C_3   0.023796 0.770484 0.520814 -0.141961
C20   C     C_3   0.229515 0.023785 0.520816 -0.141971
C21   C     C_3   0.476284 0.729518 0.020829 -0.141962
C22   C     C_3   0.270485 0.476215 0.020816 -0.141948
C23   C     C_3   0.523724 0.270483 0.020827 -0.141961
C24   C     C_3   0.729515 0.523794 0.020814 -0.141948
C25   C     C_3   0.999795 0.188923 0.500017 0.013803
C26   C     C_3   0.811077 0.999793 0.500017 0.013812
C27   C     C_3   0.000206 0.811077 0.500016 0.013803
C28   C     C_3   0.188923 0.000207 0.500017 0.013814
C29   C     C_3   0.499791 0.688922 0.000018 0.013794
C30   C     C_3   0.311077 0.499792 0.000017 0.013804
C31   C     C_3   0.500209 0.311078 0.000018 0.013794
C32   C     C_3   0.688923 0.500208 0.000016 0.013804
C33   C     C_R   0.500001 0.999996 0.376770 0.350771
C34   C     C_R   0.000001 0.500000 0.376770 0.350767
C35   C     C_R   0.999997 0.499998 0.876770 0.350797
C36   C     C_R   0.500001 0.000002 0.876769 0.351264
C37   C     C_R   0.494475 0.056308 0.389452 -0.151355
C38   C     C_R   0.943691 0.494460 0.389452 -0.151341
C39   C     C_R   0.505527 0.943686 0.389453 -0.151356
C40   C     C_R   0.056310 0.505540 0.389452 -0.151337
C41   C     C_R   0.994472 0.556310 0.889452 -0.151355
C42   C     C_R   0.443659 0.994803 0.889449 -0.151603
C43   C     C_R   0.005523 0.443687 0.889452 -0.151362
C44   C     C_R   0.556343 0.005201 0.889449 -0.151597
C45   C     C_R   0.999998 0.499998 0.623194 0.347472
C46   C     C_R   0.500001 0.000002 0.623190 0.347281
C47   C     C_R   0.499999 0.999997 0.123195 0.347476
C48   C     C_R   0.000000 0.500001 0.123194 0.347492
C49   C     C_R   0.054681 0.485287 0.585468 -0.220823
C50   C     C_R   0.515303 0.054519 0.585463 -0.220857
C51   C     C_R   0.945317 0.514711 0.585468 -0.220823
C52   C     C_R   0.484698 0.945482 0.585463 -0.220858
C53   C     C_R   0.554699 0.985350 0.085469 -0.220829
C54   C     C_R   0.014686 0.554689 0.085469 -0.220825
C55   C     C_R   0.445300 0.014647 0.085469 -0.220830
C56   C     C_R   0.985314 0.445312 0.085469 -0.220824
C57   C     C_R   1.000000 0.500000 0.546239 0.796558
C58   C     C_R   0.500000 0.000000 0.546238 0.796452
C59   C     C_R   0.500000 1.000000 0.046239 0.796589
C60   C     C_R   1.000000 0.500000 0.046239 0.796565
C61   C     C_R   0.999962 0.379645 0.499914 0.792682
C62   C     C_R   0.620355 0.999961 0.499915 0.792636
C63   C     C_R   0.000038 0.620355 0.499914 0.792682
C64   C     C_R   0.379644 0.000039 0.499915 0.792636
C65   C     C_R   0.499962 0.879644 0.999914 0.792709
C66   C     C_R   0.120355 0.499961 0.999915 0.792693
C67   C     C_R   0.500038 0.120356 0.999914 0.792707
C68   C     C_R   0.879645 0.500039 0.999914 0.792690
C69   C     C_R   0.000000 0.500000 0.453709 0.811619
C70   C     C_R   0.500000 1.000000 0.453709 0.811618
C71   C     C_R   0.500000 0.000000 0.953708 0.811613
C72   C     C_R   1.000000 0.500000 0.953709 0.811621
C73   C     C_R   0.500000 0.999999 0.427244 -0.024452
C74   C     C_R   0.000000 0.500000 0.427244 -0.024478
C75   C     C_R   0.999999 0.499999 0.927244 -0.024477
C76   C     C_R   0.500000 0.000001 0.927242 -0.024683
C77   C     C_R   0.043397 0.538004 0.737262 0.041310
C78   C     C_R   0.462557 0.043893 0.737262 0.041313
C79   C     C_R   0.956597 0.461991 0.737262 0.041309
C80   C     C_R   0.537449 0.956115 0.737262 0.041313
C81   C     C_R   0.543369 0.038037 0.237262 0.041308
C82   C     C_R   0.961968 0.543379 0.237262 0.041307
C83   C     C_R   0.456630 0.961954 0.237262 0.041308
C84   C     C_R   0.038034 0.456622 0.237261 0.041307
C85   C     C_R   0.999997 0.499998 0.724656 0.068000
C86   C     C_R   0.500003 0.000004 0.724657 0.067978
C87   C     C_R   0.500000 0.999996 0.224656 0.068000
C88   C     C_R   0.000001 0.500001 0.224656 0.068001
C89   C     C_R   0.082954 0.577807 0.723831 -0.206305
C90   C     C_R   0.423289 0.083982 0.723830 -0.206282
C91   C     C_R   0.917040 0.422188 0.723831 -0.206304
C92   C     C_R   0.576716 0.916026 0.723830 -0.206282
C93   C     C_R   0.582887 0.077880 0.223832 -0.206311
C94   C     C_R   0.922138 0.582912 0.223831 -0.206308
C95   C     C_R   0.417112 0.922112 0.223832 -0.206311
C96   C     C_R   0.077863 0.417090 0.223831 -0.206308
C97   C     C_R   0.081544 0.578411 0.698928 -0.148276
C98   C     C_R   0.422676 0.082584 0.698927 -0.148273
C99   C     C_R   0.918451 0.421585 0.698927 -0.148275
C100  C     C_R   0.577329 0.917423 0.698926 -0.148273
C101  C     C_R   0.581472 0.078486 0.198928 -0.148271
C102  C     C_R   0.921536 0.581501 0.198928 -0.148277
C103  C     C_R   0.418526 0.921506 0.198928 -0.148272
C104  C     C_R   0.078465 0.418501 0.198927 -0.148277
C105  C     C_R   0.040824 0.539331 0.686352 -0.019523
C106  C     C_R   0.461211 0.041346 0.686352 -0.019515
C107  C     C_R   0.959171 0.460664 0.686352 -0.019524
C108  C     C_R   0.538793 0.958660 0.686351 -0.019515
C109  C     C_R   0.540788 0.039369 0.186353 -0.019521
C110  C     C_R   0.960641 0.540805 0.186352 -0.019527
C111  C     C_R   0.459210 0.960624 0.186353 -0.019521
C112  C     C_R   0.039360 0.459197 0.186352 -0.019527
C113  C     C_R   0.999997 0.499998 0.699140 -0.044367
C114  C     C_R   0.500002 0.000003 0.699140 -0.044365
C115  C     C_R   0.499999 0.999996 0.199140 -0.044374
C116  C     C_R   0.000001 0.500001 0.199139 -0.044367
C117  C     C_R   0.494631 0.056380 0.414470 -0.243983
C118  C     C_R   0.943620 0.494616 0.414470 -0.244003
C119  C     C_R   0.505370 0.943617 0.414470 -0.243992
C120  C     C_R   0.056380 0.505384 0.414470 -0.243999
C121  C     C_R   0.994629 0.556381 0.914470 -0.243992
C122  C     C_R   0.443590 0.994938 0.914467 -0.243861
C123  C     C_R   0.005368 0.443617 0.914470 -0.243998
C124  C     C_R   0.556411 0.005064 0.914467 -0.243853
C125  C     C_R   0.039608 0.539141 0.661154 0.530994
C126  C     C_R   0.461382 0.040125 0.661153 0.530990
C127  C     C_R   0.960387 0.460855 0.661154 0.530994
C128  C     C_R   0.538621 0.959880 0.661153 0.530990
C129  C     C_R   0.539570 0.039180 0.161155 0.530989
C130  C     C_R   0.960832 0.539589 0.161154 0.530991
C131  C     C_R   0.460428 0.960814 0.161155 0.530989
C132  C     C_R   0.039169 0.460413 0.161154 0.530992
C133  C     C_R   0.545504 0.035457 0.262732 0.041769
C134  C     C_R   0.964542 0.545509 0.262732 0.041768
C135  C     C_R   0.454496 0.964533 0.262732 0.041769
C136  C     C_R   0.035459 0.454493 0.262732 0.041768
C137  C     C_R   0.045524 0.535430 0.762732 0.041770
C138  C     C_R   0.465135 0.045969 0.762734 0.041773
C139  C     C_R   0.954470 0.464565 0.762732 0.041769
C140  C     C_R   0.534870 0.954039 0.762733 0.041773
C141  C     C_R   0.500000 0.999995 0.275337 0.067483
C142  C     C_R   0.000001 0.500001 0.275337 0.067484
C143  C     C_R   0.999997 0.499998 0.775337 0.067482
C144  C     C_R   0.500003 0.000004 0.775339 0.067462
C145  C     C_R   0.054541 0.484928 0.610494 -0.104695
C146  C     C_R   0.515674 0.054374 0.610489 -0.104606
C147  C     C_R   0.945456 0.515069 0.610494 -0.104695
C148  C     C_R   0.484327 0.945629 0.610489 -0.104605
C149  C     C_R   0.554559 0.984991 0.110495 -0.104704
C150  C     C_R   0.015044 0.554550 0.110494 -0.104703
C151  C     C_R   0.445439 0.015004 0.110495 -0.104703
C152  C     C_R   0.984956 0.445452 0.110494 -0.104704
C153  C     C_R   0.407946 0.933190 0.276162 -0.207102
C154  C     C_R   0.066804 0.407943 0.276162 -0.207099
C155  C     C_R   0.592055 0.066799 0.276162 -0.207103
C156  C     C_R   0.933197 0.592058 0.276163 -0.207100
C157  C     C_R   0.907905 0.433246 0.776163 -0.207096
C158  C     C_R   0.565638 0.907108 0.776166 -0.207065
C159  C     C_R   0.092089 0.566749 0.776163 -0.207098
C160  C     C_R   0.434367 0.092900 0.776167 -0.207064
C161  C     C_R   0.407619 0.934688 0.301066 -0.151500
C162  C     C_R   0.065311 0.407619 0.301066 -0.151507
C163  C     C_R   0.592383 0.065301 0.301065 -0.151500
C164  C     C_R   0.934691 0.592382 0.301067 -0.151507
C165  C     C_R   0.907581 0.434740 0.801067 -0.151508
C166  C     C_R   0.564162 0.906819 0.801070 -0.151524
C167  C     C_R   0.092413 0.565255 0.801067 -0.151508
C168  C     C_R   0.435842 0.093188 0.801070 -0.151523
C169  C     C_R   0.453675 0.967310 0.313639 -0.015648
C170  C     C_R   0.032688 0.453676 0.313639 -0.015654
C171  C     C_R   0.546327 0.032679 0.313639 -0.015646
C172  C     C_R   0.967313 0.546325 0.313640 -0.015654
C173  C     C_R   0.953655 0.467337 0.813640 -0.015656
C174  C     C_R   0.532121 0.953282 0.813643 -0.015677
C175  C     C_R   0.046339 0.532658 0.813640 -0.015654
C176  C     C_R   0.467883 0.046725 0.813643 -0.015678
C177  C     C_R   0.500001 0.999995 0.300852 -0.047179
C178  C     C_R   0.000001 0.500001 0.300852 -0.047168
C179  C     C_R   0.999997 0.499998 0.800852 -0.047168
C180  C     C_R   0.500002 0.000004 0.800855 -0.047159
C181  C     C_R   0.545900 0.031525 0.338834 0.529296
C182  C     C_R   0.968464 0.545896 0.338835 0.529295
C183  C     C_R   0.454103 0.968464 0.338834 0.529296
C184  C     C_R   0.031538 0.454105 0.338835 0.529296
C185  C     C_R   0.045909 0.531508 0.838835 0.529296
C186  C     C_R   0.469009 0.046267 0.838838 0.529319
C187  C     C_R   0.954084 0.468488 0.838835 0.529295
C188  C     C_R   0.530994 0.953739 0.838838 0.529320
C189  C     C_R   0.999999 0.499999 0.572705 -0.037195
C190  C     C_R   0.500000 0.000001 0.572701 -0.036983
C191  C     C_R   0.500000 0.999999 0.072705 -0.037211
C192  C     C_R   1.000000 0.500000 0.072705 -0.037196
C193  C     C_3   0.058888 0.229053 0.497345 -0.190269
C194  C     C_3   0.770944 0.058884 0.497338 -0.190253
C195  C     C_3   0.941111 0.770947 0.497346 -0.190269
C196  C     C_3   0.229056 0.941115 0.497341 -0.190255
C197  C     C_3   0.558875 0.729050 0.997313 -0.190272
C198  C     C_3   0.270944 0.558885 0.997341 -0.190270
C199  C     C_3   0.441124 0.270950 0.997316 -0.190273
C200  C     C_3   0.729056 0.441114 0.997344 -0.190271
C201  C     C_3   0.035114 0.270865 0.518130 -0.161783
C202  C     C_3   0.729134 0.035129 0.518127 -0.161838
C203  C     C_3   0.964888 0.729136 0.518131 -0.161782
C204  C     C_3   0.270866 0.964879 0.518128 -0.161834
C205  C     C_3   0.535181 0.770864 0.018111 -0.161814
C206  C     C_3   0.229134 0.535121 0.018128 -0.161790
C207  C     C_3   0.464825 0.229137 0.018113 -0.161809
C208  C     C_3   0.770866 0.464887 0.018130 -0.161783
C209  C     C_3   0.999721 0.311151 0.499810 -0.015304
C210  C     C_3   0.688849 0.999719 0.499812 -0.015284
C211  C     C_3   0.000279 0.688849 0.499810 -0.015304
C212  C     C_3   0.311151 0.000281 0.499811 -0.015283
C213  C     C_3   0.499721 0.811150 0.999811 -0.015330
C214  C     C_3   0.188849 0.499719 0.999811 -0.015312
C215  C     C_3   0.500279 0.188849 0.999810 -0.015330
C216  C     C_3   0.811151 0.500281 0.999810 -0.015311
C217  C     C_3   0.023058 0.270135 0.479247 0.057994
C218  C     C_3   0.729863 0.023037 0.479245 0.058008
C219  C     C_3   0.976940 0.729864 0.479247 0.057993
C220  C     C_3   0.270137 0.976954 0.479245 0.058003
C221  C     C_3   0.522978 0.770132 0.979235 0.058040
C222  C     C_3   0.229863 0.523046 0.979245 0.058001
C223  C     C_3   0.477015 0.229868 0.979235 0.058038
C224  C     C_3   0.770137 0.476946 0.979246 0.057998
C225  C     C_3   0.964281 0.228907 0.481676 -0.199717
C226  C     C_3   0.771094 0.964262 0.481681 -0.199730
C227  C     C_3   0.035717 0.771092 0.481675 -0.199720
C228  C     C_3   0.228906 0.035730 0.481679 -0.199727
C229  C     C_3   0.464209 0.728906 0.981697 -0.199683
C230  C     C_3   0.271094 0.464270 0.981679 -0.199716
C231  C     C_3   0.535785 0.271093 0.981695 -0.199683
C232  C     C_3   0.728906 0.535723 0.981676 -0.199716
Cu1   Cu    Cu3+1 0.000000 0.000000 0.476100 0.953475
Cu2   Cu    Cu3+1 0.500000 0.500000 0.976100 0.953511
Cu3   Cu    Cu3+1 0.000000 0.000000 0.523900 0.946885
Cu4   Cu    Cu3+1 0.500000 0.500000 0.023900 0.946938
Cu5   Cu    Cu3+1 0.937240 0.500030 0.499980 0.943550
Cu6   Cu    Cu3+1 0.499970 0.937240 0.499980 0.943594
Cu7   Cu    Cu3+1 0.062760 0.499970 0.499980 0.943550
Cu8   Cu    Cu3+1 0.500030 0.062760 0.499980 0.943595
Cu9   Cu    Cu3+1 0.437240 0.000030 0.999980 0.943484
Cu10  Cu    Cu3+1 0.999970 0.437240 0.999980 0.943525
Cu11  Cu    Cu3+1 0.562760 0.999970 0.999980 0.943483
Cu12  Cu    Cu3+1 0.000030 0.562760 0.999980 0.943524
H1    H     H_    0.370891 0.909877 0.310449 0.183656
H2    H     H_    0.090124 0.370893 0.310449 0.183660
H3    H     H_    0.629111 0.090111 0.310448 0.183657
H4    H     H_    0.909877 0.629108 0.310450 0.183660
H5    H     H_    0.870842 0.409947 0.810450 0.183661
H6    H     H_    0.588524 0.869791 0.810453 0.183662
H7    H     H_    0.129151 0.590048 0.810450 0.183661
H8    H     H_    0.411480 0.130216 0.810454 0.183662
H9    H     H_    0.956870 0.211607 0.537946 0.145840
H10   H     H_    0.788396 0.956902 0.537952 0.145830
H11   H     H_    0.043135 0.788394 0.537945 0.145840
H12   H     H_    0.211604 0.043114 0.537949 0.145826
H13   H     H_    0.457010 0.711611 0.037971 0.145879
H14   H     H_    0.288395 0.456886 0.037949 0.145856
H15   H     H_    0.543003 0.288390 0.037969 0.145876
H16   H     H_    0.711605 0.543130 0.037946 0.145853
H17   H     H_    0.490316 0.100553 0.423779 0.165202
H18   H     H_    0.899449 0.490290 0.423780 0.165205
H19   H     H_    0.509685 0.899444 0.423781 0.165205
H20   H     H_    0.100552 0.509710 0.423780 0.165204
H21   H     H_    0.990314 0.600554 0.923780 0.165201
H22   H     H_    0.399392 0.990877 0.923776 0.165275
H23   H     H_    0.009684 0.399445 0.923780 0.165202
H24   H     H_    0.600608 0.009125 0.923776 0.165274
H25   H     H_    0.114825 0.610358 0.732018 0.140061
H26   H     H_    0.391168 0.116293 0.732013 0.140044
H27   H     H_    0.885168 0.389638 0.732018 0.140060
H28   H     H_    0.608838 0.883715 0.732013 0.140044
H29   H     H_    0.614727 0.110460 0.232020 0.140065
H30   H     H_    0.889567 0.614762 0.232018 0.140064
H31   H     H_    0.385271 0.889532 0.232019 0.140065
H32   H     H_    0.110435 0.385239 0.232018 0.140064
H33   H     H_    0.112836 0.609802 0.689547 0.185605
H34   H     H_    0.391708 0.114298 0.689545 0.185609
H35   H     H_    0.887158 0.390194 0.689546 0.185605
H36   H     H_    0.608297 0.885709 0.689545 0.185610
H37   H     H_    0.612734 0.109909 0.189547 0.185606
H38   H     H_    0.890125 0.612775 0.189547 0.185608
H39   H     H_    0.387264 0.890084 0.189547 0.185605
H40   H     H_    0.109877 0.387228 0.189546 0.185608
H41   H     H_    0.489846 0.100093 0.379896 0.150160
H42   H     H_    0.899907 0.489819 0.379897 0.150157
H43   H     H_    0.510157 0.899900 0.379897 0.150162
H44   H     H_    0.100094 0.510181 0.379897 0.150157
H45   H     H_    0.989843 0.600095 0.879896 0.150134
H46   H     H_    0.399850 0.990447 0.879890 0.149807
H47   H     H_    0.010151 0.399902 0.879896 0.150134
H48   H     H_    0.600152 0.009558 0.879890 0.149807
H49   H     H_    0.096875 0.472755 0.620041 0.148054
H50   H     H_    0.528324 0.096570 0.620034 0.148158
H51   H     H_    0.903122 0.527241 0.620041 0.148055
H52   H     H_    0.471678 0.903433 0.620035 0.148158
H53   H     H_    0.596908 0.972868 0.120042 0.148054
H54   H     H_    0.027197 0.596889 0.120042 0.148037
H55   H     H_    0.403091 0.027127 0.120042 0.148054
H56   H     H_    0.972804 0.403112 0.120042 0.148037
H57   H     H_    0.097416 0.473431 0.576124 0.159595
H58   H     H_    0.527630 0.097116 0.576116 0.159406
H59   H     H_    0.902582 0.526568 0.576124 0.159596
H60   H     H_    0.472370 0.902885 0.576116 0.159405
H61   H     H_    0.597448 0.973545 0.076125 0.159606
H62   H     H_    0.026522 0.597429 0.076125 0.159594
H63   H     H_    0.402551 0.026453 0.076125 0.159607
H64   H     H_    0.973478 0.402572 0.076125 0.159594
H65   H     H_    0.369970 0.908029 0.267974 0.139886
H66   H     H_    0.091964 0.369965 0.267975 0.139886
H67   H     H_    0.630032 0.091960 0.267974 0.139887
H68   H     H_    0.908037 0.630036 0.267976 0.139886
H69   H     H_    0.869915 0.408104 0.767976 0.139883
H70   H     H_    0.590324 0.868814 0.767983 0.139864
H71   H     H_    0.130079 0.591891 0.767976 0.139883
H72   H     H_    0.409681 0.131194 0.767983 0.139864
H73   H     H_    0.063950 0.289287 0.533080 0.138194
H74   H     H_    0.710710 0.063978 0.533072 0.138119
H75   H     H_    0.936053 0.710714 0.533081 0.138193
H76   H     H_    0.289289 0.936037 0.533076 0.138117
H77   H     H_    0.564075 0.789286 0.033044 0.138220
H78   H     H_    0.210710 0.563964 0.033076 0.138198
H79   H     H_    0.435936 0.210715 0.033047 0.138218
H80   H     H_    0.789289 0.436050 0.033079 0.138195
H81   H     H_    0.106897 0.209982 0.495560 0.115752
H82   H     H_    0.790014 0.106890 0.495547 0.115741
H83   H     H_    0.893103 0.790018 0.495561 0.115752
H84   H     H_    0.209987 0.893108 0.495552 0.115743
H85   H     H_    0.606876 0.709977 0.995503 0.115746
H86   H     H_    0.290014 0.606892 0.995553 0.115748
H87   H     H_    0.393122 0.290023 0.995508 0.115746
H88   H     H_    0.709986 0.393106 0.995558 0.115748
H89   H     H_    0.935441 0.210537 0.466712 0.140050
H90   H     H_    0.789465 0.935410 0.466721 0.140043
H91   H     H_    0.064555 0.789462 0.466710 0.140052
H92   H     H_    0.210535 0.064576 0.466716 0.140044
H93   H     H_    0.435312 0.710536 0.966749 0.140030
H94   H     H_    0.289465 0.435424 0.966716 0.140037
H95   H     H_    0.564677 0.289463 0.966746 0.140034
H96   H     H_    0.710535 0.564563 0.966712 0.140041
H97   H     H_    0.892433 0.288484 0.504616 0.150066
H98   H     H_    0.711519 0.892436 0.504631 0.150079
H99   H     H_    0.107567 0.711515 0.504614 0.150065
H100  H     H_    0.288480 0.107566 0.504624 0.150078
H101  H     H_    0.392451 0.788487 0.004677 0.150071
H102  H     H_    0.211519 0.392434 0.004624 0.150066
H103  H     H_    0.607551 0.211513 0.004670 0.150071
H104  H     H_    0.788481 0.607568 0.004617 0.150066
N1    N     N_R   0.500001 0.999995 0.350948 -0.457662
N2    N     N_R   0.000001 0.500000 0.350948 -0.457666
N3    N     N_R   0.999997 0.499998 0.850948 -0.457669
N4    N     N_R   0.500001 0.000003 0.850949 -0.457707
N5    N     N_R   0.999998 0.499998 0.649031 -0.464185
N6    N     N_R   0.500001 0.000002 0.649030 -0.464150
N7    N     N_R   0.499999 0.999997 0.149032 -0.464183
N8    N     N_R   0.000001 0.500001 0.149032 -0.464188
O1    O     O_R   0.091590 0.000030 0.479820 -0.587011
O2    O     O_R   0.999970 0.091590 0.479820 -0.587013
O3    O     O_R   0.908410 0.999970 0.479820 -0.587010
O4    O     O_R   0.000030 0.908410 0.479820 -0.587013
O5    O     O_R   0.591590 0.500030 0.979820 -0.587014
O6    O     O_R   0.499970 0.591590 0.979820 -0.587000
O7    O     O_R   0.408410 0.499970 0.979820 -0.587013
O8    O     O_R   0.500030 0.408410 0.979820 -0.587001
O9    O     O_R   0.091560 0.000060 0.520180 -0.589570
O10   O     O_R   0.999940 0.091560 0.520180 -0.589565
O11   O     O_R   0.908440 0.999940 0.520180 -0.589571
O12   O     O_R   0.000060 0.908440 0.520180 -0.589564
O13   O     O_R   0.591560 0.500060 0.020180 -0.589556
O14   O     O_R   0.499940 0.591560 0.020180 -0.589569
O15   O     O_R   0.408440 0.499940 0.020180 -0.589557
O16   O     O_R   0.500060 0.408440 0.020180 -0.589568
O17   O     O_2   0.591369 0.061243 0.351112 -0.578553
O18   O     O_2   0.938737 0.591361 0.351113 -0.578522
O19   O     O_2   0.408634 0.938745 0.351112 -0.578544
O20   O     O_2   0.061265 0.408640 0.351113 -0.578525
O21   O     O_2   0.091390 0.561208 0.851113 -0.578533
O22   O     O_2   0.439801 0.092061 0.851120 -0.578553
O23   O     O_2   0.908604 0.438787 0.851113 -0.578524
O24   O     O_2   0.560201 0.907945 0.851119 -0.578561
O25   O     O_R   0.947000 0.500060 0.534840 -0.588033
O26   O     O_R   0.499940 0.947000 0.534840 -0.587939
O27   O     O_R   0.053000 0.499940 0.534840 -0.588032
O28   O     O_R   0.500060 0.053000 0.534840 -0.587939
O29   O     O_R   0.447000 0.000060 0.034840 -0.588044
O30   O     O_R   0.999940 0.447000 0.034840 -0.588040
O31   O     O_R   0.553000 0.999940 0.034840 -0.588043
O32   O     O_R   0.000060 0.553000 0.034840 -0.588040
O33   O     O_R   0.947010 0.408460 0.499980 -0.592228
O34   O     O_R   0.591540 0.947010 0.499980 -0.592204
O35   O     O_R   0.052990 0.591540 0.499980 -0.592227
O36   O     O_R   0.408460 0.052990 0.499980 -0.592202
O37   O     O_R   0.447010 0.908460 0.999980 -0.592218
O38   O     O_R   0.091540 0.447010 0.999980 -0.592229
O39   O     O_R   0.552990 0.091540 0.999980 -0.592217
O40   O     O_R   0.908460 0.552990 0.999980 -0.592228
O41   O     O_R   0.053010 0.408470 0.499960 -0.583139
O42   O     O_R   0.591530 0.053010 0.499960 -0.583178
O43   O     O_R   0.946990 0.591530 0.499960 -0.583139
O44   O     O_R   0.408470 0.946990 0.499960 -0.583177
O45   O     O_R   0.553010 0.908470 0.999960 -0.583165
O46   O     O_R   0.091530 0.553010 0.999960 -0.583143
O47   O     O_R   0.446990 0.091530 0.999960 -0.583164
O48   O     O_R   0.908470 0.446990 0.999960 -0.583142
O49   O     O_R   0.946990 0.500000 0.465110 -0.588717
O50   O     O_R   0.500000 0.946990 0.465110 -0.588719
O51   O     O_R   0.053010 0.500000 0.465110 -0.588717
O52   O     O_R   0.500000 0.053010 0.465110 -0.588719
O53   O     O_R   0.446990 1.000000 0.965110 -0.588752
O54   O     O_R   0.000000 0.446990 0.965110 -0.588720
O55   O     O_R   0.553010 1.000000 0.965110 -0.588753
O56   O     O_R   0.000000 0.553010 0.965110 -0.588720
O57   O     O_2   0.077352 0.578236 0.648882 -0.547315
O58   O     O_2   0.422781 0.078377 0.648883 -0.547347
O59   O     O_2   0.922643 0.421760 0.648882 -0.547316
O60   O     O_2   0.577222 0.921628 0.648883 -0.547347
O61   O     O_2   0.577273 0.078314 0.148883 -0.547321
O62   O     O_2   0.921714 0.577310 0.148882 -0.547311
O63   O     O_2   0.422724 0.921680 0.148883 -0.547321
O64   O     O_2   0.078287 0.422692 0.148882 -0.547311
C233  C     C_R   0.046852 0.294622 0.455696 0.106830
C234  C     C_R   0.110122 0.288745 0.449400 -0.126246
C235  C     C_R   0.131375 0.311291 0.427338 -0.154487
C236  C     C_R   0.089630 0.339325 0.411373 -0.083534
C237  C     C_R   0.026597 0.345111 0.417486 -0.102838
C238  C     C_R   0.005320 0.323483 0.439669 -0.183908
H105  H     H_    0.143156 0.267097 0.461493 0.114852
H106  H     H_    0.180209 0.306853 0.422588 0.131172
H107  H     H_    0.106137 0.356561 0.394283 0.175808
H108  H     H_    0.994261 0.366510 0.405050 0.159537
H109  H     H_    0.956426 0.328692 0.444266 0.124787
C239  C     C_R   0.705375 0.046813 0.455691 0.106818
C240  C     C_R   0.711241 0.110080 0.449390 -0.126244
C241  C     C_R   0.688693 0.131318 0.427327 -0.154493
C242  C     C_R   0.660667 0.089559 0.411365 -0.083532
C243  C     C_R   0.654892 0.026529 0.417483 -0.102849
C244  C     C_R   0.676522 0.005268 0.439668 -0.183905
H110  H     H_    0.732881 0.143124 0.461481 0.114852
H111  H     H_    0.693122 0.180149 0.422572 0.131176
H112  H     H_    0.643429 0.106054 0.394273 0.175859
H113  H     H_    0.633499 0.994183 0.405050 0.159515
H114  H     H_    0.671322 0.956375 0.444269 0.124796
C245  C     C_R   0.953143 0.705376 0.455697 0.106832
C246  C     C_R   0.889871 0.711251 0.449403 -0.126244
C247  C     C_R   0.868614 0.688704 0.427342 -0.154489
C248  C     C_R   0.910358 0.660671 0.411375 -0.083534
C249  C     C_R   0.973392 0.654888 0.417486 -0.102831
C250  C     C_R   0.994672 0.676516 0.439669 -0.183911
H115  H     H_    0.856839 0.732898 0.461497 0.114852
H116  H     H_    0.819780 0.693140 0.422593 0.131172
H117  H     H_    0.893849 0.643433 0.394286 0.175798
H118  H     H_    0.005727 0.633489 0.405050 0.159542
H119  H     H_    0.043568 0.671310 0.444264 0.124787
C251  C     C_R   0.294626 0.953171 0.455693 0.106822
C252  C     C_R   0.288762 0.889900 0.449395 -0.126244
C253  C     C_R   0.311310 0.868656 0.427333 -0.154494
C254  C     C_R   0.339332 0.910409 0.411368 -0.083535
C255  C     C_R   0.345104 0.973442 0.417483 -0.102839
C256  C     C_R   0.323475 0.994711 0.439667 -0.183909
H120  H     H_    0.267124 0.856860 0.461488 0.114852
H121  H     H_    0.306883 0.819822 0.422581 0.131174
H122  H     H_    0.356570 0.893909 0.394277 0.175838
H123  H     H_    0.366494 0.005785 0.405047 0.159522
H124  H     H_    0.328674 0.043605 0.444265 0.124793
C257  C     C_R   0.546682 0.794601 0.955668 0.106792
C258  C     C_R   0.609919 0.788671 0.949329 -0.126225
C259  C     C_R   0.631084 0.811184 0.927250 -0.154698
C260  C     C_R   0.589284 0.839237 0.911311 -0.083486
C261  C     C_R   0.526285 0.845080 0.917468 -0.102548
C262  C     C_R   0.505097 0.823484 0.939668 -0.184064
H125  H     H_    0.642993 0.767003 0.961400 0.114857
H126  H     H_    0.679891 0.806704 0.922466 0.131177
H127  H     H_    0.605726 0.856450 0.894208 0.175847
H128  H     H_    0.493907 0.866504 0.905054 0.159765
H129  H     H_    0.456228 0.828732 0.944298 0.124873
C263  C     C_R   0.205376 0.546829 0.955693 0.106827
C264  C     C_R   0.211250 0.610098 0.949394 -0.126241
C265  C     C_R   0.188704 0.631342 0.927331 -0.154489
C266  C     C_R   0.160674 0.589590 0.911368 -0.083523
C267  C     C_R   0.154891 0.526559 0.917484 -0.102831
C268  C     C_R   0.176519 0.505291 0.939669 -0.183918
H130  H     H_    0.232895 0.643136 0.961485 0.114851
H131  H     H_    0.193139 0.680174 0.922578 0.131179
H132  H     H_    0.143437 0.606090 0.894277 0.175827
H133  H     H_    0.133495 0.494218 0.905050 0.159538
H134  H     H_    0.171313 0.456398 0.944268 0.124789
C269  C     C_R   0.453303 0.205398 0.955670 0.106797
C270  C     C_R   0.390065 0.211329 0.949334 -0.126223
C271  C     C_R   0.368892 0.188816 0.927256 -0.154699
C272  C     C_R   0.410686 0.160762 0.911315 -0.083489
C273  C     C_R   0.473687 0.154918 0.917469 -0.102533
C274  C     C_R   0.494883 0.176514 0.939668 -0.184069
H135  H     H_    0.356995 0.232998 0.961407 0.114855
H136  H     H_    0.320083 0.193297 0.922474 0.131174
H137  H     H_    0.394239 0.143549 0.894213 0.175824
H138  H     H_    0.506061 0.133493 0.905053 0.159777
H139  H     H_    0.543752 0.171265 0.944296 0.124871
C275  C     C_R   0.794624 0.453153 0.955695 0.106833
C276  C     C_R   0.788748 0.389883 0.949399 -0.126242
C277  C     C_R   0.811294 0.368631 0.927337 -0.154489
C278  C     C_R   0.839326 0.410377 0.911372 -0.083526
C279  C     C_R   0.845110 0.473409 0.917485 -0.102819
C280  C     C_R   0.823483 0.494685 0.939669 -0.183922
H140  H     H_    0.767102 0.356849 0.961491 0.114850
H141  H     H_    0.806857 0.319798 0.922586 0.131177
H142  H     H_    0.856562 0.393871 0.894281 0.175804
H143  H     H_    0.866508 0.505746 0.905049 0.159550
H144  H     H_    0.828690 0.543579 0.944266 0.124786

loop_
_geom_bond_atom_site_label_1
_geom_bond_atom_site_label_2
_ccdc_geom_bond_type
C79   C139  A    
C132  O64   S    
C253  H121  S    
C73   C119  A    
Cu2   O5    S    
C198  C206  S    
C237  C238  A    
C163  H3    S    
C66   O38   A    
C131  O63   S    
C267  C268  A    
C28   C228  S    
C42   H46   S    
C129  O61   S    
C261  C262  A    
C77   C89   A    
C150  H54   S    
C170  C178  A    
C82   C94   A    
C16   H104  S    
C7    O7    A    
C195  C203  S    
C173  C179  A    
C185  O21   S    
C78   C138  A    
C193  C201  S    
C185  N3    A    
C13   C213  S    
C107  C113  A    
C80   C86   A    
C214  C222  S    
C36   C42   A    
C46   C148  A    
C33   N1    S    
C57   O27   A    
Cu10  Cu12  S    
C35   N3    S    
C196  C204  S    
Cu3   O12   S    
C87   C115  A    
Cu12  O32   S    
C97   C105  A    
C129  N7    A    
C222  C263  S    
C156  H68   S    
Cu5   O43   S    
Cu6   O44   S    
C217  C233  S    
C90   H26   S    
Cu2   Cu4   S    
C153  H65   S    
C236  H107  S    
C208  H80   S    
Cu6   Cu8   S    
C166  C174  A    
C66   O46   A    
C151  H55   S    
C15   C215  S    
C37   H41   S    
C63   O43   A    
C226  H90   S    
C212  C220  S    
C39   H43   S    
C21   C29   S    
C124  H24   S    
C78   C90   A    
C153  C161  A    
C23   C31   S    
C80   C92   A    
C271  H136  S    
C216  C224  S    
C65   C213  S    
C12   C20   S    
C19   C203  S    
C275  C276  A    
C13   C21   S    
C69   C74   S    
C17   C201  S    
Cu7   O35   S    
C125  N5    A    
C19   H11   S    
C239  C240  A    
C96   C104  A    
C36   C44   A    
C272  C273  A    
C26   C194  S    
C110  C116  A    
C79   C85   A    
C99   C107  A    
C243  C244  A    
C206  H78   S    
C233  C238  A    
C23   C207  S    
C171  C181  A    
C3    C26   S    
C84   C88   A    
Cu4   O13   S    
C175  C179  A    
C55   C151  A    
C72   O56   A    
C74   C120  A    
C24   H16   S    
C257  C262  A    
C98   C106  A    
C105  C125  A    
C196  H84   S    
C17   C25   S    
Cu1   O2    S    
C76   C122  A    
C193  H81   S    
C51   H59   S    
C21   H13   S    
C46   C146  A    
C10   C18   S    
C8    O8    A    
C25   C225  S    
C270  C271  A    
C159  C167  A    
C263  C268  A    
C68   C216  S    
C126  O58   S    
C247  C248  A    
Cu3   O10   S    
C14   C230  S    
Cu8   O28   S    
C107  C127  A    
C69   O51   A    
C138  C160  A    
C37   C117  A    
C139  C157  A    
C258  C259  A    
C60   O30   A    
C251  C256  A    
C64   C212  S    
C65   O45   A    
C69   O49   A    
C218  C226  S    
C53   H61   S    
C209  C217  S    
C11   C211  S    
C278  H142  S    
C32   C232  S    
C122  H22   S    
C162  H2    S    
C233  C234  A    
C36   N4    S    
C21   C205  S    
C182  O18   S    
C71   O55   A    
C195  C219  S    
C228  H92   S    
C54   C150  A    
C18   H10   S    
C161  H1    S    
Cu10  O30   S    
C220  C228  S    
C194  H82   S    
Cu2   O8    S    
C45   C145  A    
C105  C113  A    
C202  H74   S    
C197  C221  S    
C262  H129  S    
C3    O3    A    
C240  H110  S    
C127  O59   S    
C207  H79   S    
C277  C278  A    
C22   C206  S    
C97   H33   S    
C140  C158  A    
C99   H35   S    
C10   C210  S    
C2    O10   A    
C144  C180  A    
C253  C254  A    
C43   H47   S    
C58   C190  S    
Cu5   O49   S    
C237  H108  S    
C251  C252  A    
C143  C179  A    
C35   C43   A    
C79   C91   A    
C161  C169  A    
C160  C168  A    
C77   C85   A    
C234  H105  S    
C52   C148  A    
C45   N5    S    
C278  C279  A    
C53   C149  A    
C203  C211  S    
C72   C75   S    
C152  H56   S    
Cu4   O15   S    
C169  C177  A    
C95   C103  A    
C221  C257  S    
C74   C118  A    
Cu9   O37   S    
C100  C108  A    
C255  C256  A    
C61   O33   A    
C76   C124  A    
Cu1   O4    S    
C88   C116  A    
C157  C165  A    
C104  C112  A    
C92   C100  A    
C266  H132  S    
C155  C163  A    
C31   C231  S    
C246  C247  A    
Cu7   O51   S    
C57   C189  S    
C172  C182  A    
Cu1   Cu3   S    
Cu11  O45   S    
C170  C184  A    
C70   O50   A    
C60   C192  S    
C60   O32   A    
C62   C210  S    
C70   O52   A    
C108  C128  A    
C59   O31   A    
C51   C147  A    
C154  H66   S    
C111  C131  A    
C236  C237  A    
C30   C198  S    
C109  C129  A    
C234  C235  A    
C96   H32   S    
C164  C172  A    
C232  H96   S    
C221  C229  S    
C71   O53   A    
C174  C180  A    
C112  C116  A    
C4    C27   S    
C163  C171  A    
C38   H42   S    
C128  N6    A    
C172  C178  A    
C168  C176  A    
C254  C255  A    
C173  C187  A    
Cu2   O6    S    
C15   C231  S    
C45   C147  A    
C8    C31   S    
Cu10  O54   S    
C63   C211  S    
C52   C190  A    
C81   C133  A    
C211  C219  S    
C50   C146  A    
C29   C197  S    
C275  C280  A    
C101  H37   S    
C225  H89   S    
C14   C22   S    
C49   H57   S    
C4    O12   A    
C29   C229  S    
C138  C144  A    
C119  H19   S    
C206  C214  S    
C142  C178  A    
C55   H63   S    
Cu6   O26   S    
C82   C88   A    
C188  N4    A    
C28   C196  S    
C157  H69   S    
C48   N8    S    
C272  H137  S    
C265  C266  A    
C35   C41   A    
C243  H113  S    
C176  C180  A    
C260  C261  A    
C222  C230  S    
C11   C227  S    
C276  H140  S    
C269  C270  A    
C230  H94   S    
C9    C225  S    
C64   O44   A    
C91   C99   A    
Cu3   O11   S    
C217  C225  S    
C63   O35   A    
C83   C87   A    
C56   C192  A    
C48   C150  A    
C273  H138  S    
C197  C205  S    
C266  C267  A    
C18   C26   S    
C50   H58   S    
C224  C275  S    
C31   C199  S    
C241  C242  A    
C280  H144  S    
C22   H14   S    
C11   C19   S    
Cu8   O36   S    
C141  C177  A    
C167  C175  A    
C77   C137  A    
C81   C93   A    
C109  C115  A    
C67   O47   A    
C71   C76   S    
C92   H28   S    
C12   C228  S    
C101  C109  A    
C258  H125  S    
C194  C202  S    
C1    O1    A    
C95   H31   S    
C14   C214  S    
C103  C111  A    
C108  C114  A    
C16   C216  S    
C52   H60   S    
C249  H118  S    
C59   O29   A    
C136  C142  A    
C68   O40   A    
C13   H101  S    
C213  C221  S    
C247  H116  S    
C134  C156  A    
C34   N2    S    
C223  C231  S    
C1    C28   S    
C269  C274  A    
C56   C152  A    
C22   C30   S    
C195  H83   S    
C51   C189  A    
C200  H88   S    
C5    C32   S    
C117  H17   S    
C62   O34   A    
C259  H126  S    
C205  C213  S    
C252  C253  A    
C7    C30   S    
C34   C38   A    
C184  N2    A    
C263  C264  A    
C154  C162  A    
C20   H12   S    
C279  H143  S    
C146  H50   S    
C168  H8    S    
C181  O17   S    
C277  H141  S    
C8    O16   A    
C249  C250  A    
C20   C204  S    
C98   H34   S    
Cu4   O14   S    
C188  O24   S    
C137  C159  A    
Cu11  O55   S    
C80   C140  A    
C44   C124  A    
C33   C37   A    
Cu6   O50   S    
Cu1   O1    S    
C274  H139  S    
C66   C214  S    
C193  C217  S    
C58   O28   A    
C264  C265  A    
C204  H76   S    
C175  C185  A    
C136  C154  A    
C162  C170  A    
C261  H128  S    
C17   H9    S    
C70   C73   S    
C207  C215  S    
C49   C145  A    
C18   C202  S    
C5    O5    A    
C112  C132  A    
C53   C191  A    
C245  C250  A    
C126  N6    A    
C200  C208  S    
C54   C192  A    
C7    O15   A    
C40   C120  A    
C166  H6    S    
C47   C151  A    
C255  H123  S    
Cu10  O38   S    
C187  O23   S    
C252  H120  S    
C75   C123  A    
C102  C110  A    
C27   C195  S    
C2    O2    A    
C93   C101  A    
C20   C28   S    
Cu1   O3    S    
C25   C193  S    
C158  C166  A    
C242  H112  S    
C205  H77   S    
C279  C280  A    
C14   H102  S    
C219  C245  S    
C9    H97   S    
C220  C251  S    
C140  C144  A    
C11   H99   S    
Cu12  O40   S    
C135  C153  A    
C94   H30   S    
C203  H75   S    
C89   H25   S    
C67   O39   A    
C256  H124  S    
C106  C126  A    
C133  C141  A    
C268  H134  S    
C68   O48   A    
C229  H93   S    
C65   O37   A    
C130  O62   S    
C46   N6    S    
C32   C200  S    
C159  H71   S    
C267  H133  S    
C104  H40   S    
C147  H51   S    
C265  H131  S    
C26   C226  S    
C85   C113  A    
C24   C208  S    
C110  C130  A    
C2    C25   S    
C132  N8    A    
Cu7   O27   S    
C50   C190  A    
C201  H73   S    
C72   O54   A    
C160  H72   S    
C13   C229  S    
C38   C118  A    
C123  H23   S    
C6    C29   S    
C49   C189  A    
Cu9   O53   S    
C218  C239  S    
Cu11  O31   S    
C219  C227  S    
C55   C191  A    
C121  H21   S    
Cu8   O52   S    
C82   C134  A    
C248  C249  A    
C131  N7    A    
C102  H38   S    
C67   C215  S    
Cu4   O16   S    
C24   C32   S    
C6    O6    A    
C194  C218  S    
C199  H87   S    
C128  O60   S    
C33   C39   A    
C106  C114  A    
C165  H5    S    
C158  H70   S    
C61   O41   A    
C198  C222  S    
C58   O26   A    
C91   H27   S    
C224  C232  S    
C149  H53   S    
C182  N2    A    
C134  C142  A    
C260  H127  S    
C165  C173  A    
C276  C277  A    
C27   C227  S    
C167  H7    S    
C84   C96   A    
C41   C121  A    
C10   H98   S    
C174  C188  A    
C169  C183  A    
C47   C149  A    
C9    C209  S    
C120  H20   S    
C273  C274  A    
C19   C27   S    
C271  C272  A    
C83   C135  A    
C241  H111  S    
C183  N1    A    
C5    O13   A    
C78   C86   A    
C15   C23   S    
C137  C143  A    
C23   H15   S    
C16   C24   S    
C183  O19   S    
C100  H36   S    
C204  C212  S    
C197  H85   S    
C139  C143  A    
C202  C210  S    
C4    O4    A    
C103  H39   S    
C196  C220  S    
Cu11  O39   S    
C59   C191  S    
C238  H109  S    
C239  C244  A    
C148  H52   S    
C201  C209  S    
C155  H67   S    
Cu6   O34   S    
C73   C117  A    
Cu2   O7    S    
C15   H103  S    
C200  C224  S    
C12   C212  S    
C56   H64   S    
C235  C236  A    
C186  N4    A    
C61   C209  S    
C93   H29   S    
C264  H130  S    
C16   C232  S    
C89   C97   A    
Cu9   Cu11  S    
C198  H86   S    
Cu12  O46   S    
C64   O36   A    
C130  N8    A    
Cu3   O9    S    
C259  C260  A    
C118  H18   S    
C135  C141  A    
C254  H122  S    
C83   C95   A    
Cu9   O47   S    
C199  C207  S    
C257  C258  A    
Cu5   O33   S    
Cu10  O48   S    
C81   C87   A    
C250  H119  S    
C184  O20   S    
C187  N3    A    
C248  H117  S    
C9    C17   S    
C75   C121  A    
C246  H115  S    
C40   H44   S    
Cu5   Cu7   S    
C57   O25   A    
C270  H135  S    
C125  O57   S    
Cu12  O56   S    
Cu7   O41   S    
C43   C123  A    
Cu8   O42   S    
C39   C119  A    
C47   N7    S    
C42   C122  A    
C127  N5    A    
C6    O14   A    
C44   H48   S    
C1    O9    A    
C133  C155  A    
C171  C177  A    
C54   H62   S    
C3    O11   A    
C215  C223  S    
C244  H114  S    
C176  C186  A    
C235  H106  S    
C41   H45   S    
C210  C218  S    
C86   C114  A    
C30   C230  S    
C48   C152  A    
C245  C246  A    
C145  H49   S    
Cu9   O29   S    
C62   O42   A    
Cu5   O25   S    
C223  C269  S    
C164  H4    S    
C186  O22   S    
C12   H100  S    
C242  C243  A    
C199  C223  S    
C156  C164  A    
C208  C216  S    
C240  C241  A    
C231  H95   S    
C10   C226  S    
C34   C40   A    
C111  C115  A    
C181  N1    A    
C90   C98   A    
C94   C102  A    
C227  H91   S    
C84   C136  A    
