data_mof_unit_pretest_436.cif
_audit_creation_date              2013-03-05T16:43:42-0500
_audit_creation_method            fapswitch 2.2
_symmetry_space_group_name_H-M    P1
_symmetry_Int_Tables_number       1
_space_group_crystal_system       triclinic
_cell_length_a                    15.714242
_cell_length_b                    10.717586
_cell_length_c                    9.903425
_cell_angle_alpha                 89.626387
_cell_angle_beta                  88.826629
_cell_angle_gamma                 90.441532
_cell_volume                      1667.48589132

loop_
_atom_site_label
_atom_site_type_symbol
_atom_site_description
_atom_site_fract_x
_atom_site_fract_y
_atom_site_fract_z
_atom_type_partial_charge
O1    O     O_R   0.500010 0.316790 0.614690 -0.618284
O2    O     O_R   0.500000 0.316760 0.385350 -0.628447
C1    C     C_R   0.501639 0.260101 0.500143 0.934279
O3    O     O_R   0.376780 0.500010 0.614650 -0.604798
O4    O     O_R   0.376770 0.499970 0.385310 -0.612329
C2    C     C_R   0.338004 0.499660 0.501193 0.941825
Zn1   Zn    Zn3+2 0.500010 0.500020 0.653130 0.954384
Zn2   Zn    Zn3+2 0.499990 0.499980 0.346870 0.948892
O5    O     O_R   0.500000 0.683240 0.614650 -0.620249
O6    O     O_R   0.499990 0.683210 0.385310 -0.629504
O7    O     O_R   0.623230 0.500030 0.614690 -0.623653
O8    O     O_R   0.623220 0.499990 0.385350 -0.624321
C3    C     C_R   0.502931 0.739752 0.499681 0.871706
C4    C     C_R   0.661988 0.500220 0.498800 0.895404
C5    C     C_3   0.970019 0.405593 0.575594 0.201873
C6    C     C_3   0.028979 0.389006 0.450602 -0.166938
H1    H     H_    0.053956 0.299521 0.410900 0.154239
C7    C     C_1   0.249063 0.498969 0.503603 -0.157820
C8    C     C_1   0.750898 0.500313 0.496271 -0.189159
C9    C     C_3   0.025646 0.513284 0.627966 -0.153200
C10   C     C_3   0.082946 0.498364 0.501822 0.117621
C11   C     C_3   0.971728 0.608304 0.548297 -0.242683
C12   C     C_3   0.917099 0.499541 0.497341 0.168780
C13   C     C_3   0.031067 0.593761 0.422329 -0.162488
C14   C     C_3   0.975343 0.484797 0.373206 0.202237
C15   C     C_1   0.173748 0.498510 0.503713 -0.034860
C16   C     C_1   0.826191 0.500176 0.495867 -0.050940
H2    H     H_    0.058146 0.670596 0.358736 0.151587
H3    H     H_    0.946531 0.697656 0.587943 0.156682
H4    H     H_    0.048234 0.524077 0.732773 0.148964
C17   C     C_R   0.506882 0.061841 0.620829 -0.030709
C18   C     C_R   0.511758 0.128384 0.499952 -0.038493
C19   C     C_R   0.531322 0.065651 0.379277 -0.207458
H5    H     H_    0.540664 0.115303 0.284428 0.163409
C20   C     C_R   0.532442 0.936347 0.379098 -0.209601
H6    H     H_    0.541501 0.888339 0.284000 0.166321
C21   C     C_R   0.515504 0.871115 0.500120 -0.088817
C22   C     C_R   0.512523 0.935048 0.622089 0.063330
C23   C     C_3   0.454167 0.921579 0.743261 -0.060020
C24   C     C_3   0.446356 0.063210 0.740418 0.126647
H7    H     H_    0.394346 0.869900 0.721219 0.198480
H8    H     H_    0.473690 0.111404 0.828697 0.097211
C25   C     C_R   0.427046 0.475694 0.073687 0.178364
N1    N     N_R   0.499430 0.499140 0.142800 -0.111139
C26   C     C_R   0.568700 0.543712 0.067290 0.211640
C27   C     C_R   0.568961 0.539438 0.923901 -0.158630
H9    H     H_    0.624530 0.569774 0.865941 0.165806
N2    N     N_R   0.499430 0.499180 0.857150 -0.128670
C28   C     C_R   0.426634 0.477717 0.931764 0.168147
C29   C     C_3   0.371646 0.364240 0.928319 -0.412597
C30   C     C_3   0.373204 0.361059 0.081809 -0.480493
H10   H     H_    0.307702 0.384365 0.887832 0.220906
H11   H     H_    0.404947 0.285305 0.880623 0.223105
H12   H     H_    0.309995 0.378974 0.129932 0.214446
H13   H     H_    0.407773 0.279580 0.123147 0.216691
C31   C     C_3   0.499326 0.873069 0.868438 -0.904229
H14   H     H_    0.457870 0.886518 0.959225 0.253753
H15   H     H_    0.511903 0.772218 0.857712 0.273006
H16   H     H_    0.560804 0.922654 0.883250 0.238289
N3    N     N_R   0.358953 0.101019 0.711539 0.204396
O9    O     O_R   0.300947 0.091761 0.806728 -0.401253
O10   O     O_R   0.336749 0.136847 0.591584 -0.409702
C32   C     C_3   0.645032 0.601259 0.131307 -0.827123
H17   H     H_    0.625140 0.665182 0.213306 0.263369
H18   H     H_    0.688016 0.527027 0.167086 0.251791
H19   H     H_    0.682427 0.658998 0.057400 0.193969
C33   C     C_3   0.934138 0.299435 0.662498 -0.911681
H20   H     H_    0.987138 0.246453 0.707220 0.256606
H21   H     H_    0.893232 0.337758 0.744707 0.245271
H22   H     H_    0.895680 0.235964 0.599514 0.243414
C34   C     C_3   0.945400 0.469128 0.229257 -0.926865
H23   H     H_    0.001328 0.461083 0.159705 0.248019
H24   H     H_    0.905577 0.383516 0.222514 0.246039
H25   H     H_    0.907242 0.551217 0.199598 0.246254

loop_
_geom_bond_atom_site_label_1
_geom_bond_atom_site_label_2
_geom_bond_distance
_ccdc_geom_bond_type
C10   C15   1.427388 S    
C32   H18   1.108682 S    
C6    C10   1.536316 S    
C24   N3    1.468182 S    
C11   H3    1.110128 S    
C20   H6    1.083485 S    
C7    C15   1.183470 T    
C23   H7    1.113594 S    
C9    H4    1.110290 S    
C26   C27   1.420997 A    
C17   C24   1.503936 S    
Zn1   O7    1.965710 S    
C20   C21   1.403305 A    
O4    C2    1.288203 A    
O7    C4    1.288217 A    
C5    C6    1.542961 S    
C31   H14   1.110271 S    
N3    O10   1.301368 A    
O5    C3    1.285984 A    
C17   C18   1.389896 A    
C6    H1    1.110337 S    
C29   H10   1.111606 S    
C14   C34   1.520284 S    
C12   C16   1.428989 S    
C8    C16   1.183108 T    
C3    C21   1.420226 S    
C5    C12   1.528098 S    
C32   H19   1.111229 S    
O3    Zn1   1.981249 S    
C19   H5    1.083374 S    
C5    C9    1.541458 S    
C2    C7    1.397322 S    
C27   N2    1.357581 A    
C29   H11   1.102085 S    
C33   H20   1.109676 S    
C13   H2    1.110261 S    
C13   C14   1.541561 S    
O3    C2    1.289130 A    
C23   C24   1.523956 S    
C34   H24   1.109796 S    
C25   C28   1.405698 A    
C26   C32   1.498651 S    
N3    O9    1.300611 A    
O1    C1    1.290243 A    
C25   N1    1.362044 A    
C21   C22   1.392743 A    
C34   H25   1.109877 S    
C23   C31   1.531016 S    
Zn2   O8    1.981250 S    
C5    C33   1.520066 S    
C29   C30   1.520937 S    
N2    C28   1.366244 A    
O8    C4    1.289000 A    
C11   C13   1.551522 S    
N1    C26   1.387918 A    
C6    C14   1.543189 S    
Zn1   O5    1.997874 S    
C27   H9    1.081847 S    
O1    Zn1   2.002777 S    
C4    C8    1.396862 S    
O2    Zn2   1.997872 S    
Zn2   N1    2.021270 S    
C9    C11   1.551681 S    
O6    C3    1.289559 A    
O4    Zn2   1.965711 S    
C31   H16   1.111826 S    
C17   C22   1.362478 A    
C30   H12   1.111466 S    
Zn1   N2    2.020292 S    
C33   H22   1.109798 S    
O2    C1    1.286182 A    
C34   H23   1.109703 S    
C18   C19   1.404791 A    
C25   C30   1.487185 S    
C22   C23   1.500810 S    
C24   H8    1.110627 S    
C19   C20   1.386084 A    
C31   H15   1.105709 S    
C30   H13   1.112225 S    
C12   C14   1.527314 S    
C1    C18   1.421838 S    
C32   H17   1.107563 S    
C9    C10   1.534832 S    
Zn2   O6    2.002777 S    
C28   C29   1.487459 S    
C10   C13   1.535691 S    
C11   C12   1.536359 S    
C33   H21   1.109840 S    
