data_mof_unit_pretest_973.cif
_audit_creation_date              2012-12-10T16:50:59-0500
_audit_creation_method            fapswitch 2.2
_symmetry_space_group_name_H-M    P1
_symmetry_Int_Tables_number       1
_space_group_crystal_system       triclinic
_cell_length_a                    7.757912
_cell_length_b                    8.557254
_cell_length_c                    10.93585
_cell_angle_alpha                 91.688929
_cell_angle_beta                  85.558478
_cell_angle_gamma                 93.583115
_cell_volume                      722.17542694

loop_
_atom_site_label
_atom_site_type_symbol
_atom_type_description
_atom_site_fract_x
_atom_site_fract_y
_atom_site_fract_z
_atom_type_partial_charge
C1    C     C_R   0.545727 0.794750 0.496778 0.944403
C2    C     C_R   0.953718 0.409942 0.051802 -0.096275
C3    C     C_R   0.029315 0.562166 0.074476 -0.121597
C4    C     C_R   0.970673 0.437810 0.925523 -0.121590
C5    C     C_R   0.183373 0.570761 0.135277 -0.133090
C6    C     C_R   0.816614 0.429215 0.864723 -0.133081
C7    C     C_R   0.343890 0.533282 0.071387 0.050659
C8    C     C_R   0.656100 0.466699 0.928614 0.050653
C9    C     C_R   0.356501 0.552105 0.944542 0.038073
C10   C     C_R   0.643489 0.447876 0.055459 0.038074
C11   C     C_R   0.491814 0.488375 0.127638 -0.194493
C12   C     C_R   0.454273 0.205250 0.503222 0.944399
C13   C     C_R   0.508179 0.511611 0.872362 -0.194495
C14   C     C_2   0.569982 0.958125 0.494850 -0.376473
C15   C     C_2   0.430017 0.041874 0.505150 -0.376471
C16   C     C_R   0.503370 0.505317 0.739851 0.857249
C17   C     C_R   0.496628 0.494679 0.260149 0.857251
C18   C     C_R   0.215600 0.621174 0.895784 -0.157194
C19   C     C_R   0.784387 0.378806 0.104216 -0.157203
C20   C     C_R   0.046269 0.590035 0.948198 -0.096275
F1    F     F_    0.030947 0.358289 0.388508 -0.593192
F2    F     F_    0.969052 0.641709 0.611494 -0.593189
H1    H     H_    0.060307 0.361113 0.875308 0.158956
H2    H     H_    0.297735 0.991060 0.515045 0.202070
H3    H     H_    0.939681 0.638863 0.124691 0.158958
H4    H     H_    0.234884 0.699570 0.819236 0.186595
H5    H     H_    0.765103 0.300416 0.180768 0.186594
H6    H     H_    0.967641 0.682860 0.921557 0.169535
H7    H     H_    0.032346 0.317116 0.078443 0.169535
H8    H     H_    0.174154 0.627298 0.224514 0.187143
H9    H     H_    0.825824 0.372665 0.775490 0.187127
H10   H     H_    0.702265 0.008939 0.484955 0.202070
N1    N     N_2   0.950330 0.457950 0.466250 0.238998
N2    N     N_2   0.049670 0.542050 0.533750 0.239000
O1    O     O_R   0.389250 0.738570 0.508280 -0.618985
O2    O     O_R   0.610750 0.261430 0.491720 -0.618986
O3    O     O_R   0.678390 0.711630 0.486650 -0.581770
O4    O     O_R   0.321610 0.288370 0.513350 -0.581769
O5    O     O_R   0.355430 0.513480 0.694040 -0.630042
O6    O     O_R   0.644570 0.486520 0.305960 -0.630042
O7    O     O_R   0.644570 0.486540 0.672410 -0.601742
O8    O     O_R   0.355430 0.513460 0.327590 -0.601752
Zn1   Zn    Zn3+2 0.306940 0.517990 0.514440 1.071182
Zn2   Zn    Zn3+2 0.693060 0.482010 0.485560 1.071182

loop_
_geom_bond_atom_site_label_1
_geom_bond_atom_site_label_2
_ccdc_geom_bond_type
C2    C4    A    
C5    C7    A    
C8    C13   A    
C12   O2    A    
O1    Zn1   S    
C18   H4    S    
C12   C15   S    
C1    O3    A    
C10   C19   A    
O3    Zn2   S    
C2    C3    A    
C3    C20   A    
C7    C11   A    
C2    H7    S    
C6    C8    A    
C8    C10   A    
C15   H2    S    
N1    N2    D    
C18   C20   A    
C12   O4    A    
C14   C15   D    
F2    N2    S    
O7    Zn2   S    
O4    Zn1   S    
O2    Zn2   S    
F1    N1    S    
C10   C11   A    
C16   O5    A    
C4    C20   A    
C9    C18   A    
O6    Zn2   S    
C3    H3    S    
C19   H5    S    
C1    O1    A    
C4    C6    A    
C5    H8    S    
O8    Zn1   S    
C13   C16   S    
C7    C9    A    
C4    H1    S    
C9    C13   A    
C17   O8    A    
C11   C17   S    
C6    H9    S    
C1    C14   S    
C20   H6    S    
C2    C19   A    
O5    Zn1   S    
N1    Zn2   S    
C16   O7    A    
N2    Zn1   S    
C14   H10   S    
C3    C5    A    
C17   O6    A    
