data_mof_unit_pretest_1820.cif
_audit_creation_date              2013-03-05T15:44:41-0500
_audit_creation_method            fapswitch 2.2
_symmetry_space_group_name_H-M    P1
_symmetry_Int_Tables_number       1
_space_group_crystal_system       triclinic
_cell_length_a                    20.04179
_cell_length_b                    22.685296
_cell_length_c                    15.160985
_cell_angle_alpha                 89.906318
_cell_angle_beta                  90.614573
_cell_angle_gamma                 89.94406
_cell_volume                      6892.5923942

loop_
_atom_site_label
_atom_site_type_symbol
_atom_site_description
_atom_site_fract_x
_atom_site_fract_y
_atom_site_fract_z
_atom_type_partial_charge
Zn1   Zn    Zn3+2 0.583120 0.000000 0.434770 1.006099
Zn2   Zn    Zn3+2 0.083120 0.500000 0.434770 1.006087
Zn3   Zn    Zn3+2 0.425830 0.000000 0.416880 0.996775
Zn4   Zn    Zn3+2 0.925830 0.500000 0.416880 0.996711
Zn5   Zn    Zn3+2 0.495530 0.070660 0.574170 0.989881
Zn6   Zn    Zn3+2 0.495530 0.929340 0.574170 0.995468
Zn7   Zn    Zn3+2 0.995530 0.570660 0.574170 0.989850
Zn8   Zn    Zn3+2 0.995530 0.429340 0.574170 0.995449
O1    O     O_3   0.500000 0.000000 0.500000 -0.502861
O2    O     O_3   0.000000 0.500000 0.500000 -0.502833
O3    O     O_R   0.419410 0.880950 0.543120 -0.638346
O4    O     O_R   0.419410 0.119050 0.543120 -0.636911
O5    O     O_R   0.919410 0.380950 0.543120 -0.638352
O6    O     O_R   0.919410 0.619050 0.543120 -0.636984
O7    O     O_R   0.635640 0.069590 0.463140 -0.630410
O8    O     O_R   0.635640 0.930410 0.463140 -0.631757
O9    O     O_R   0.135640 0.569590 0.463140 -0.630401
O10   O     O_R   0.135640 0.430410 0.463140 -0.631709
O11   O     O_R   0.456890 0.000000 0.295720 -0.630108
O12   O     O_R   0.956890 0.500000 0.295720 -0.630158
O13   O     O_R   0.488070 0.049450 0.698020 -0.637302
O14   O     O_R   0.488070 0.950550 0.698020 -0.630972
O15   O     O_R   0.988070 0.549450 0.698020 -0.637315
O16   O     O_R   0.988070 0.450550 0.698020 -0.630911
O17   O     O_R   0.370630 0.069610 0.433010 -0.634247
O18   O     O_R   0.370630 0.930390 0.433010 -0.639899
O19   O     O_R   0.870630 0.569610 0.433010 -0.634310
O20   O     O_R   0.870630 0.430390 0.433010 -0.639891
O21   O     O_R   0.574320 0.880940 0.560740 -0.634397
O22   O     O_R   0.574320 0.119060 0.560740 -0.635442
O23   O     O_R   0.074320 0.380940 0.560740 -0.634410
O24   O     O_R   0.074320 0.619060 0.560740 -0.635445
O25   O     O_R   0.566990 0.000000 0.308240 -0.632900
O26   O     O_R   0.066990 0.500000 0.308240 -0.632839
C1    C     C_R   0.372711 0.885691 0.484353 0.805726
C2    C     C_R   0.373485 0.114601 0.483738 0.804564
C3    C     C_R   0.872711 0.385691 0.484354 0.805683
C4    C     C_R   0.873476 0.614602 0.483736 0.804613
C5    C     C_R   0.627418 0.113017 0.515663 0.825920
C6    C     C_R   0.627252 0.886544 0.515229 0.819806
C7    C     C_R   0.127418 0.613016 0.515663 0.825919
C8    C     C_R   0.127253 0.386535 0.515224 0.819564
C9    C     C_R   0.514447 0.000585 0.260383 0.818050
C10   C     C_R   0.014447 0.500584 0.260383 0.817959
C11   C     C_R   0.485220 0.999857 0.738726 0.820053
C12   C     C_R   0.985219 0.499857 0.738726 0.820077
C13   C     C_R   0.325348 0.162748 0.471995 -0.068478
C14   C     C_R   0.321445 0.839465 0.475208 -0.077216
C15   C     C_R   0.825282 0.662723 0.472019 -0.068738
C16   C     C_R   0.821443 0.339466 0.475210 -0.077220
C17   C     C_R   0.678100 0.840696 0.521731 -0.110014
C18   C     C_R   0.678236 0.158521 0.520838 -0.100271
C19   C     C_R   0.178103 0.340675 0.521767 -0.110303
C20   C     C_R   0.178235 0.658522 0.520838 -0.100280
C21   C     C_R   0.753612 0.781556 0.612285 -0.048465
C22   C     C_R   0.774766 0.201478 0.594715 -0.045671
C23   C     C_R   0.253079 0.281136 0.612519 -0.048535
C24   C     C_R   0.274759 0.701484 0.594726 -0.045671
C25   C     C_R   0.708449 0.828585 0.604024 -0.078037
C26   C     C_R   0.726704 0.156648 0.588547 -0.075750
C27   C     C_R   0.208026 0.328244 0.604224 -0.077981
C28   C     C_R   0.226698 0.656653 0.588556 -0.075716
C29   C     C_R   0.693065 0.806839 0.446933 -0.083921
C30   C     C_R   0.677164 0.204264 0.458525 -0.079069
C31   C     C_R   0.193437 0.307074 0.446839 -0.084080
C32   C     C_R   0.177168 0.704261 0.458520 -0.079066
C33   C     C_R   0.737496 0.759019 0.454937 0.102949
C34   C     C_R   0.725434 0.249063 0.463683 0.105374
C35   C     C_R   0.237771 0.259182 0.454868 0.102799
C36   C     C_R   0.225438 0.749060 0.463678 0.105372
C37   C     C_R   0.267506 0.246062 0.538058 0.089941
C38   C     C_R   0.274176 0.747955 0.532288 0.084365
C39   C     C_R   0.767691 0.746228 0.537962 0.089775
C40   C     C_R   0.774178 0.247953 0.532284 0.084366
C41   C     C_R   0.311059 0.197853 0.545025 -0.242097
C42   C     C_R   0.321334 0.793524 0.536992 -0.239542
C43   C     C_R   0.811336 0.698082 0.544909 -0.242110
C44   C     C_R   0.821337 0.293522 0.536988 -0.239560
C45   C     C_R   0.295881 0.175896 0.389367 -0.021308
C46   C     C_R   0.273153 0.839783 0.406317 -0.021263
C47   C     C_R   0.795362 0.675563 0.389547 -0.021383
C48   C     C_R   0.773144 0.339790 0.406328 -0.021275
C49   C     C_R   0.252592 0.223660 0.381512 -0.219909
C50   C     C_R   0.225908 0.795075 0.401531 -0.220080
C51   C     C_R   0.751973 0.723255 0.381723 -0.219932
C52   C     C_R   0.725899 0.295082 0.401543 -0.220089
H1    H     H_    0.334125 0.186857 0.607857 0.174268
H2    H     H_    0.358482 0.793586 0.589327 0.183161
H3    H     H_    0.834730 0.687334 0.607631 0.174538
H4    H     H_    0.858490 0.293579 0.589316 0.183165
H5    H     H_    0.729923 0.732314 0.317529 0.158218
H6    H     H_    0.689483 0.296550 0.348198 0.158607
H7    H     H_    0.230905 0.232971 0.317192 0.158218
H8    H     H_    0.189497 0.796539 0.348180 0.158607
C53   C     C_R   0.519948 0.004276 0.164258 -0.068175
C54   C     C_R   0.019949 0.504274 0.164259 -0.068189
C55   C     C_R   0.479435 0.998910 0.834202 -0.060805
C56   C     C_R   0.979435 0.498909 0.834202 -0.060788
C57   C     C_R   0.416931 0.968982 0.963350 -0.052111
C58   C     C_R   0.916934 0.468974 0.963350 -0.052114
C59   C     C_R   0.421873 0.974300 0.871547 -0.113046
C60   C     C_R   0.921875 0.474294 0.871547 -0.113055
C61   C     C_R   0.531143 0.021807 0.887629 0.112294
C62   C     C_R   0.031140 0.521809 0.887629 0.112351
C63   C     C_R   0.525331 0.017889 0.980180 0.096991
C64   C     C_R   0.025329 0.517889 0.980180 0.096986
C65   C     C_R   0.471405 0.986220 0.018242 0.050395
C66   C     C_R   0.971407 0.486216 0.018242 0.050368
C67   C     C_R   0.474050 0.973524 0.110041 0.120178
C68   C     C_R   0.974052 0.473520 0.110042 0.120189
C69   C     C_R   0.568993 0.040424 0.126311 -0.066578
C70   C     C_R   0.068992 0.540423 0.126311 -0.066585
C71   C     C_R   0.572975 0.044852 0.035473 -0.225296
C72   C     C_R   0.072972 0.544853 0.035474 -0.225309
H9    H     H_    0.612630 0.071685 0.008887 0.167170
H10   H     H_    0.112625 0.571688 0.008888 0.167172
C73   C     C_1   0.367078 0.954968 0.814935 0.200867
N1    N     N_1   0.323543 0.939573 0.769823 -0.192967
C74   C     C_1   0.867084 0.454958 0.814934 0.200867
N2    N     N_1   0.823550 0.439559 0.769822 -0.192968
C75   C     C_3   0.594130 0.047252 0.847018 -0.837159
H11   H     H_    0.597998 0.040590 0.775007 0.242834
H12   H     H_    0.596599 0.095392 0.859695 0.242377
H13   H     H_    0.638794 0.025324 0.876137 0.244305
C76   C     C_3   0.094124 0.547259 0.847019 -0.837215
H14   H     H_    0.097993 0.540597 0.775008 0.242815
H15   H     H_    0.096589 0.595398 0.859697 0.242391
H16   H     H_    0.138790 0.525334 0.876138 0.244272
C77   C     C_1   0.310969 0.142920 0.310502 0.215438
N3    N     N_1   0.323028 0.116579 0.247311 -0.168072
C78   C     C_1   0.270321 0.884591 0.338399 0.223221
N4    N     N_1   0.267842 0.920350 0.283905 -0.171975
C79   C     C_1   0.810025 0.642323 0.310779 0.215805
N5    N     N_1   0.821738 0.615774 0.247661 -0.167849
C80   C     C_1   0.770306 0.384604 0.338418 0.223197
N6    N     N_1   0.767821 0.420366 0.283931 -0.171906
C81   C     C_1   0.283758 0.268934 0.697890 0.175316
N7    N     N_1   0.308172 0.259249 0.765916 -0.175675
C82   C     C_1   0.324361 0.699290 0.665231 0.178487
N8    N     N_1   0.363856 0.697511 0.721431 -0.175194
C83   C     C_1   0.784786 0.769717 0.697466 0.175373
N9    N     N_1   0.809599 0.760325 0.765342 -0.175641
C84   C     C_1   0.824374 0.199279 0.665213 0.178482
N10   N     N_1   0.863874 0.197497 0.721407 -0.175173
C85   C     C_1   0.693643 0.865137 0.680002 0.207682
N11   N     N_1   0.681794 0.894304 0.740431 -0.184262
C86   C     C_1   0.727143 0.108325 0.651501 0.179088
N12   N     N_1   0.727581 0.069766 0.701578 -0.201333
C87   C     C_1   0.192900 0.364546 0.680353 0.208199
N13   N     N_1   0.180796 0.393514 0.740901 -0.184165
C88   C     C_1   0.227132 0.608335 0.651518 0.179095
N14   N     N_1   0.227566 0.569780 0.701601 -0.201548
C89   C     C_1   0.660400 0.820132 0.363104 0.172513
N15   N     N_1   0.634332 0.830793 0.296459 -0.195915
C90   C     C_1   0.625456 0.205148 0.390454 0.169724
N16   N     N_1   0.584196 0.205822 0.336456 -0.199126
C91   C     C_1   0.161230 0.320686 0.362827 0.172965
N17   N     N_1   0.135530 0.331602 0.296034 -0.195508
C92   C     C_1   0.125465 0.705142 0.390443 0.169732
N18   N     N_1   0.084209 0.705813 0.336440 -0.199150
C93   C     C_3   0.436391 0.921596 0.148689 -0.818324
H17   H     H_    0.428897 0.886321 0.098923 0.235324
H18   H     H_    0.465431 0.900263 0.202780 0.223077
H19   H     H_    0.387738 0.936403 0.175015 0.268923
C94   C     C_3   0.936395 0.421592 0.148691 -0.818363
H20   H     H_    0.928908 0.386314 0.098927 0.235325
H21   H     H_    0.965434 0.400263 0.202787 0.222993
H22   H     H_    0.887740 0.436397 0.175011 0.268937
C95   C     C_1   0.616353 0.073823 0.178766 0.226330
N19   N     N_1   0.654353 0.100506 0.220549 -0.170599
C96   C     C_1   0.116353 0.573821 0.178765 0.226345
N20   N     N_1   0.154353 0.600503 0.220549 -0.170587
C97   C     C_1   0.352853 0.952219 0.999613 0.206506
N21   N     N_1   0.301569 0.939003 0.027928 -0.175245
C98   C     C_1   0.852859 0.452204 0.999612 0.206478
N22   N     N_1   0.801577 0.438981 0.027925 -0.175245

loop_
_geom_bond_atom_site_label_1
_geom_bond_atom_site_label_2
_geom_bond_distance
_ccdc_geom_bond_type
C24   C82   1.452686 S    
C24   C28   1.403963 A    
Zn7   O2    1.962064 S    
C37   C41   1.401758 A    
C96   N20   1.157363 T    
C94   H20   1.109948 S    
C21   C83   1.453110 S    
O23   C8    1.278052 A    
C21   C25   1.403011 A    
Zn2   O10   1.941642 S    
C34   C52   1.405157 A    
C95   N19   1.157367 T    
C14   C42   1.400150 A    
C86   N12   1.157271 T    
C13   C45   1.410532 A    
C46   C50   1.389641 A    
C93   H19   1.109534 S    
Zn6   O1    1.959202 S    
C62   C64   1.411905 A    
C93   H17   1.109951 S    
C51   H5    1.083826 S    
Zn1   O25   1.941947 S    
C80   N6    1.157546 T    
C4    C15   1.466198 S    
C32   C36   1.405479 A    
C97   N21   1.157691 T    
C44   H4    1.082213 S    
C63   C65   1.425026 A    
C30   C90   1.454764 S    
C43   H3    1.083051 S    
C91   N17   1.157515 T    
C64   C72   1.405096 A    
C35   C49   1.408554 A    
C87   N13   1.157496 T    
C30   C34   1.405482 A    
C63   C71   1.405103 A    
C77   N3    1.157530 T    
O10   C8    1.281823 A    
C8    C19   1.458155 S    
C68   C94   1.519746 S    
C31   C35   1.407135 A    
C70   C96   1.447279 S    
O19   C4    1.279926 A    
C34   C40   1.419451 A    
C84   N10   1.157385 T    
Zn6   O14   1.946384 S    
C2    C13   1.465950 S    
C15   C47   1.410747 A    
C48   C80   1.446373 S    
C35   C37   1.420134 A    
C75   H13   1.110660 S    
C18   C26   1.406270 A    
C93   H18   1.110578 S    
C22   C84   1.452682 S    
C19   C27   1.408700 A    
C61   C63   1.411904 A    
Zn7   O6    1.932273 S    
C62   C76   1.524060 S    
C92   N18   1.157436 T    
C66   C68   1.421217 A    
C76   H16   1.110654 S    
C9    C53   1.464949 S    
C88   N14   1.157272 T    
Zn3   O11   1.945830 S    
C33   C39   1.420195 A    
C26   C86   1.452289 S    
O4    C2    1.284744 A    
C36   C50   1.405157 A    
C42   H2    1.082216 S    
O5    C3    1.289548 A    
C17   C29   1.405551 A    
C38   C42   1.402744 A    
Zn2   O26   1.941947 S    
C5    C18   1.452479 S    
C12   C56   1.453515 S    
C94   H21   1.110573 S    
O15   C12   1.283903 A    
Zn2   O9    1.944452 S    
C65   C67   1.421212 A    
C1    C14   1.474485 S    
C16   C44   1.400151 A    
C70   C72   1.383842 A    
C32   C92   1.454767 S    
O12   C10   1.277158 A    
O11   C9    1.277156 A    
C85   N11   1.157533 T    
O13   C11   1.283901 A    
Zn7   O24   1.936510 S    
C29   C33   1.407070 A    
C58   C66   1.421223 A    
C33   C51   1.408521 A    
C28   C88   1.452285 S    
C23   C81   1.453044 S    
O25   C9    1.272438 A    
Zn3   O17   1.944478 S    
C22   C40   1.415647 A    
C29   C89   1.454406 S    
Zn5   O4    1.932273 S    
C31   C91   1.454310 S    
C18   C30   1.402172 A    
Zn6   O3    1.934838 S    
C20   C28   1.406273 A    
C48   C52   1.389642 A    
C54   C68   1.412588 A    
C36   C38   1.419454 A    
C22   C26   1.403964 A    
C69   C95   1.447285 S    
C21   C39   1.414543 A    
Zn5   O1    1.962064 S    
Zn3   O1    1.938441 S    
C56   C60   1.406186 A    
O6    C4    1.284899 A    
C54   C70   1.407755 A    
C98   N22   1.157683 T    
C57   C97   1.453103 S    
O24   C7    1.278253 A    
C55   C59   1.406192 A    
Zn6   O21   1.935139 S    
C58   C98   1.453096 S    
C58   C60   1.401424 A    
Zn1   O1    1.946407 S    
C69   C71   1.383847 A    
Zn1   O8    1.941642 S    
C50   H8    1.084010 S    
C23   C37   1.414421 A    
C74   N2    1.157415 T    
C47   C79   1.446067 S    
O7    C5    1.279386 A    
C75   H11   1.105950 S    
C55   C61   1.408653 A    
O8    C6    1.281708 A    
Zn1   O7    1.944452 S    
C25   C85   1.453428 S    
C41   H1    1.083010 S    
C57   C59   1.401426 A    
C94   H22   1.109532 S    
C53   C67   1.412592 A    
C76   H14   1.105949 S    
C17   C25   1.408666 A    
Zn4   O2    1.938441 S    
C78   N4    1.157546 T    
Zn2   O2    1.946407 S    
Zn4   O19   1.944478 S    
C19   C31   1.405611 A    
C16   C48   1.416330 A    
C76   H15   1.110206 S    
Zn5   O22   1.936510 S    
C11   C55   1.453515 S    
O26   C10   1.272435 A    
C10   C54   1.464946 S    
Zn8   O23   1.935139 S    
Zn3   O18   1.945585 S    
C72   H10   1.082421 S    
C82   N8    1.157386 T    
C23   C27   1.402990 A    
C20   C32   1.402173 A    
C6    C17   1.457893 S    
C57   C65   1.421226 A    
C81   N7    1.157402 T    
C40   C44   1.402744 A    
C53   C69   1.407760 A    
O16   C12   1.279912 A    
C14   C46   1.416330 A    
C45   C77   1.446006 S    
O3    C1    1.289547 A    
C59   C73   1.454974 S    
C52   H6    1.084009 S    
C73   N1    1.157420 T    
C45   C49   1.391564 A    
C3    C16   1.474486 S    
C24   C38   1.415647 A    
C79   N5    1.157586 T    
C64   C66   1.425021 A    
O20   C3    1.277702 A    
Zn7   O15   1.944938 S    
O21   C6    1.278021 A    
Zn8   O16   1.946384 S    
C15   C43   1.397082 A    
O22   C5    1.278252 A    
C61   C75   1.524072 S    
O9    C7    1.279386 A    
C7    C20   1.452481 S    
C75   H12   1.110211 S    
O17   C2    1.279932 A    
C13   C41   1.396918 A    
Zn4   O12   1.945830 S    
Zn8   O5    1.934838 S    
O18   C1    1.277703 A    
O14   C11   1.279913 A    
Zn5   O13   1.944938 S    
Zn8   O2    1.959202 S    
Zn4   O20   1.945585 S    
C90   N16   1.157435 T    
C46   C78   1.446371 S    
C39   C43   1.401761 A    
C67   C93   1.519753 S    
C89   N15   1.157579 T    
C83   N9    1.157477 T    
C27   C87   1.453408 S    
C56   C62   1.408646 A    
C47   C51   1.391515 A    
C60   C74   1.454971 S    
C71   H9    1.082428 S    
C49   H7    1.083746 S    
