data_mof_unit_pretest_257.cif
_audit_creation_date              2013-03-05T15:39:28-0500
_audit_creation_method            fapswitch 2.2
_symmetry_space_group_name_H-M    P1
_symmetry_Int_Tables_number       1
_space_group_crystal_system       triclinic
_cell_length_a                    16.932849
_cell_length_b                    16.951398
_cell_length_c                    16.993942
_cell_angle_alpha                 68.241513
_cell_angle_beta                  68.138585
_cell_angle_gamma                 68.058023
_cell_volume                      4044.39546225

loop_
_atom_site_label
_atom_site_type_symbol
_atom_site_description
_atom_site_fract_x
_atom_site_fract_y
_atom_site_fract_z
_atom_type_partial_charge
O1    O     O_R   0.124540 0.978640 0.385460 -0.550433
O2    O     O_R   0.875460 0.021360 0.614540 -0.535540
O3    O     O_R   0.978640 0.385460 0.124540 -0.544005
O4    O     O_R   0.021360 0.614540 0.875460 -0.552028
O5    O     O_R   0.385460 0.124540 0.978640 -0.573205
O6    O     O_R   0.614540 0.875460 0.021360 -0.554561
O7    O     O_R   0.614540 0.021360 0.875460 -0.537860
O8    O     O_R   0.385460 0.978640 0.124540 -0.556000
O9    O     O_R   0.875460 0.614540 0.021360 -0.545551
O10   O     O_R   0.124540 0.385460 0.978640 -0.579132
O11   O     O_R   0.021360 0.875460 0.614540 -0.545196
O12   O     O_R   0.978640 0.124540 0.385460 -0.549449
C1    C     C_R   0.587936 0.040306 0.594814 -0.024825
C2    C     C_R   0.399427 0.988009 0.403239 -0.031112
C3    C     C_R   0.020220 0.597207 0.595697 -0.029376
C4    C     C_R   0.974192 0.406271 0.404304 -0.029589
C5    C     C_R   0.598629 0.595706 0.016919 -0.029948
C6    C     C_R   0.407570 0.400758 0.973467 -0.030864
Cu1   Cu    Cu3+1 0.995180 0.995180 0.424630 0.949094
Cu2   Cu    Cu3+1 0.004820 0.004820 0.575370 0.972551
Cu3   Cu    Cu3+1 0.995180 0.424630 0.995180 0.966651
Cu4   Cu    Cu3+1 0.004820 0.575370 0.004820 0.949759
Cu5   Cu    Cu3+1 0.424630 0.995180 0.995180 0.925995
Cu6   Cu    Cu3+1 0.575370 0.004820 0.004820 0.963607
C7    C     C_R   0.024956 0.829304 0.565818 0.794853
C8    C     C_R   0.980393 0.169655 0.432526 0.814702
C9    C     C_R   0.828990 0.565388 0.026425 0.814279
C10   C     C_R   0.169753 0.432190 0.979814 0.808157
C11   C     C_R   0.566491 0.023679 0.829876 0.826723
C12   C     C_R   0.431832 0.981931 0.169415 0.813772
C13   C     C_R   0.434761 0.170520 0.972455 0.818577
C14   C     C_R   0.568410 0.830616 0.017893 0.817414
C15   C     C_R   0.976312 0.433761 0.170408 0.797977
C16   C     C_R   0.019004 0.567822 0.830469 0.820618
C17   C     C_R   0.170767 0.974495 0.434378 0.798373
C18   C     C_R   0.830423 0.018088 0.568101 0.816972
O13   O     O_R   0.013780 0.867370 0.487190 -0.595785
O14   O     O_R   0.986220 0.132630 0.512810 -0.584959
O15   O     O_R   0.867370 0.487190 0.013780 -0.574298
O16   O     O_R   0.132630 0.512810 0.986220 -0.590223
O17   O     O_R   0.487190 0.013780 0.867370 -0.585119
O18   O     O_R   0.512810 0.986220 0.132630 -0.593403
O19   O     O_R   0.512810 0.132630 0.986220 -0.575841
O20   O     O_R   0.487190 0.867370 0.013780 -0.587779
O21   O     O_R   0.986220 0.512810 0.132630 -0.599688
O22   O     O_R   0.013780 0.487190 0.867370 -0.583136
O23   O     O_R   0.132630 0.986220 0.512810 -0.591735
O24   O     O_R   0.867370 0.013780 0.487190 -0.585457
H1    H     H_    0.477369 0.168351 0.497221 0.129671
H2    H     H_    0.503427 0.863538 0.506099 0.121736
H3    H     H_    0.148503 0.494973 0.492427 0.120919
H4    H     H_    0.845232 0.508880 0.507521 0.118837
H5    H     H_    0.587415 0.590304 0.863080 0.124254
H6    H     H_    0.424508 0.401572 0.125756 0.117444
H7    H     H_    0.396509 0.144980 0.416822 0.117202
H8    H     H_    0.578337 0.886606 0.591495 0.116117
H9    H     H_    0.506848 0.506656 0.844327 0.122332
H10   H     H_    0.503507 0.486376 0.144669 0.123207
H11   H     H_    0.128110 0.417516 0.407336 0.114436
H12   H     H_    0.865571 0.593900 0.585167 0.115292
C19   C     C_R   0.534129 0.029172 0.549677 0.126970
C20   C     C_R   0.445723 0.002516 0.454145 0.142948
C21   C     C_R   0.008480 0.549569 0.544952 0.143684
C22   C     C_R   0.985248 0.457419 0.451965 0.146014
C23   C     C_R   0.550178 0.545270 0.005358 0.131397
C24   C     C_R   0.459905 0.448329 0.983678 0.140008
C25   C     C_R   0.539395 0.943414 0.552838 -0.193081
C26   C     C_R   0.437214 0.088422 0.453838 -0.178276
C27   C     C_R   0.923055 0.554423 0.547477 -0.173855
C28   C     C_R   0.070631 0.455038 0.446999 -0.180611
C29   C     C_R   0.504533 0.491076 0.078994 -0.168681
C30   C     C_R   0.506310 0.501717 0.909900 -0.171283
C31   C     C_R   0.496755 0.930178 0.504408 -0.154774
C32   C     C_R   0.482362 0.101791 0.500189 -0.163843
C33   C     C_R   0.459861 0.442797 0.068207 -0.184033
C34   C     C_R   0.551379 0.549764 0.920671 -0.184828
C35   C     C_R   0.911455 0.506898 0.502811 -0.154193
C36   C     C_R   0.082243 0.499405 0.494752 -0.157342
C37   C     C_R   0.549960 0.055342 0.678892 -0.095828
C38   C     C_R   0.435574 0.996766 0.312144 -0.113000
C39   C     C_R   0.036651 0.680275 0.553485 -0.110391
C40   C     C_R   0.981665 0.315748 0.441693 -0.116634
C41   C     C_R   0.679212 0.552079 0.040269 -0.102786
C42   C     C_R   0.315450 0.436037 0.986824 -0.115792
C43   C     C_R   0.318615 0.966338 0.446269 -0.109689
C44   C     C_R   0.680159 0.026383 0.557572 -0.116071
C45   C     C_R   0.448851 0.318826 0.954545 -0.104247
C46   C     C_R   0.565972 0.688141 0.001914 -0.103687
C47   C     C_R   0.961410 0.447348 0.319785 -0.111855
C48   C     C_R   0.011175 0.560967 0.686485 -0.113926
C49   C     C_R   0.604993 0.031603 0.734173 -0.207474
C50   C     C_R   0.392391 0.979841 0.264609 -0.207965
C51   C     C_R   0.033546 0.732619 0.603617 -0.209173
C52   C     C_R   0.978554 0.264787 0.393174 -0.215727
C53   C     C_R   0.731593 0.602511 0.037182 -0.210157
C54   C     C_R   0.264976 0.391404 0.976062 -0.210308
C55   C     C_R   0.267420 0.966152 0.396656 -0.208031
C56   C     C_R   0.734596 0.020650 0.607470 -0.218734
C57   C     C_R   0.396556 0.266721 0.961090 -0.185264
C58   C     C_R   0.608158 0.735146 0.020540 -0.205097
C59   C     C_R   0.970323 0.395392 0.266194 -0.200252
C60   C     C_R   0.022561 0.606717 0.735103 -0.207241
C61   C     C_R   0.697606 0.011129 0.698564 0.366878
C62   C     C_R   0.307314 0.966383 0.307398 0.348600
C63   C     C_R   0.032297 0.693161 0.693110 0.351607
C64   C     C_R   0.979899 0.303828 0.303487 0.361010
C65   C     C_R   0.692134 0.691980 0.035976 0.346219
C66   C     C_R   0.305571 0.304976 0.964679 0.345508
C67   C     C_R   0.458419 0.112430 0.701624 0.163930
C68   C     C_R   0.446329 0.194495 0.713426 -0.178705
C69   C     C_R   0.361571 0.249799 0.736634 -0.079666
C70   C     C_R   0.288175 0.223609 0.748563 -0.081106
C71   C     C_R   0.299215 0.142336 0.736985 -0.201082
C72   C     C_R   0.384145 0.086809 0.713013 -0.110930
H13   H     H_    0.502806 0.215472 0.704891 0.106086
H14   H     H_    0.352758 0.312579 0.746190 0.134646
H15   H     H_    0.222834 0.265743 0.768514 0.130971
H16   H     H_    0.241747 0.122211 0.747836 0.111634
H17   H     H_    0.391648 0.024180 0.704212 0.129195
C73   C     C_R   0.516904 0.026658 0.268507 0.190802
C74   C     C_R   0.511006 0.117036 0.243005 -0.145700
C75   C     C_R   0.587837 0.144962 0.209172 -0.147890
C76   C     C_R   0.670495 0.083465 0.195901 -0.094865
C77   C     C_R   0.676682 0.993603 0.220197 -0.133146
C78   C     C_R   0.600175 0.964816 0.258653 -0.092770
H18   H     H_    0.447063 0.165352 0.251772 0.101433
H19   H     H_    0.583434 0.214218 0.193119 0.123453
H20   H     H_    0.729926 0.105307 0.167684 0.105874
H21   H     H_    0.740981 0.946345 0.210684 0.110399
H22   H     H_    0.605388 0.894859 0.279992 0.097114
C79   C     C_R   0.061623 0.708294 0.456487 0.173544
C80   C     C_R   0.150179 0.680148 0.409773 -0.181466
C81   C     C_R   0.173681 0.701062 0.318168 -0.157161
C82   C     C_R   0.109596 0.753683 0.273073 -0.138543
C83   C     C_R   0.021846 0.783148 0.319294 -0.125111
C84   C     C_R   0.996963 0.757414 0.411031 -0.048449
H23   H     H_    0.200349 0.640488 0.444451 0.107179
H24   H     H_    0.241699 0.677737 0.282200 0.118564
H25   H     H_    0.127795 0.772950 0.202205 0.106233
H26   H     H_    0.973436 0.825365 0.283601 0.106973
H27   H     H_    0.928366 0.777730 0.447012 0.110949
C85   C     C_R   0.995145 0.275419 0.530829 0.180677
C86   C     C_R   0.080769 0.246371 0.541267 -0.125303
C87   C     C_R   0.094570 0.201312 0.624388 -0.143566
C88   C     C_R   0.024135 0.180476 0.696157 -0.115314
C89   C     C_R   0.938497 0.211327 0.686357 -0.109534
C90   C     C_R   0.923400 0.260780 0.604449 -0.088439
H28   H     H_    0.136692 0.257618 0.485025 0.098546
H29   H     H_    0.160116 0.181210 0.632786 0.112517
H30   H     H_    0.035555 0.142328 0.759869 0.095948
H31   H     H_    0.883877 0.196820 0.742033 0.105696
H32   H     H_    0.856944 0.283264 0.597298 0.099271
C91   C     C_R   0.710458 0.454446 0.064977 0.158062
C92   C     C_R   0.723606 0.408388 0.148900 -0.153652
C93   C     C_R   0.765521 0.317860 0.168091 -0.094727
C94   C     C_R   0.794661 0.273145 0.103557 -0.135251
C95   C     C_R   0.780147 0.318461 0.020777 -0.148886
C96   C     C_R   0.737390 0.408602 0.001668 -0.074348
H33   H     H_    0.704146 0.443203 0.198162 0.100683
H34   H     H_    0.777254 0.283149 0.232170 0.133145
H35   H     H_    0.829576 0.203748 0.116717 0.101641
H36   H     H_    0.803812 0.284003 0.970805 0.118445
H37   H     H_    0.728379 0.443754 0.936723 0.112931
C97   C     C_R   0.275053 0.520797 0.010478 0.202994
C98   C     C_R   0.244710 0.520973 0.099317 -0.142865
C99   C     C_R   0.217215 0.600299 0.121724 -0.170111
C100  C     C_R   0.217408 0.679575 0.055801 -0.122157
C101  C     C_R   0.248353 0.679576 0.967433 -0.134390
C102  C     C_R   0.277447 0.600441 0.944462 -0.101104
H38   H     H_    0.244931 0.459584 0.150823 0.097256
H39   H     H_    0.195764 0.600314 0.190162 0.131111
H40   H     H_    0.194579 0.741070 0.072853 0.099798
H41   H     H_    0.251256 0.740856 0.916960 0.117706
H42   H     H_    0.303243 0.600833 0.875677 0.097768
C103  C     C_R   0.291979 0.939378 0.543422 0.181830
C104  C     C_R   0.316805 0.849794 0.588177 -0.186635
C105  C     C_R   0.300370 0.824367 0.679566 -0.147010
C106  C     C_R   0.256436 0.887971 0.726625 -0.128727
C107  C     C_R   0.230882 0.977052 0.682410 -0.161938
C108  C     C_R   0.250432 0.003067 0.590684 -0.061773
H43   H     H_    0.350953 0.800189 0.552052 0.105481
H44   H     H_    0.320859 0.755343 0.713942 0.117046
H45   H     H_    0.241004 0.868256 0.797521 0.112157
H46   H     H_    0.196207 0.025524 0.719471 0.105140
H47   H     H_    0.233525 0.072217 0.555870 0.110933
C109  C     C_R   0.719323 0.015114 0.467630 0.181317
C110  C     C_R   0.748235 0.930295 0.455542 -0.118945
C111  C     C_R   0.797492 0.916964 0.372872 -0.152218
C112  C     C_R   0.822508 0.987017 0.303263 -0.130264
C113  C     C_R   0.792608 0.071806 0.314750 -0.105529
C114  C     C_R   0.738632 0.086684 0.395907 -0.083715
H48   H     H_    0.734830 0.874265 0.510533 0.096964
H49   H     H_    0.818184 0.851756 0.363732 0.114811
H50   H     H_    0.863780 0.976002 0.239987 0.092956
H51   H     H_    0.812345 0.125624 0.261191 0.107539
H52   H     H_    0.717658 0.152283 0.404678 0.100166
C115  C     C_R   0.546842 0.287147 0.927675 0.155543
C116  C     C_R   0.591116 0.272968 0.843747 -0.155940
C117  C     C_R   0.680800 0.226902 0.824284 -0.102861
C118  C     C_R   0.726151 0.194192 0.888719 -0.126739
C119  C     C_R   0.682906 0.210083 0.971227 -0.148984
C120  C     C_R   0.593995 0.257646 0.990307 -0.071489
H53   H     H_    0.555248 0.294130 0.795064 0.103218
H54   H     H_    0.714284 0.214150 0.760370 0.129781
H55   H     H_    0.794301 0.155121 0.875879 0.106833
H56   H     H_    0.717969 0.183587 0.021010 0.117523
H57   H     H_    0.560226 0.267182 0.055198 0.114976
C121  C     C_R   0.495106 0.737423 0.956638 0.167951
C122  C     C_R   0.518853 0.779777 0.866280 -0.171886
C123  C     C_R   0.454819 0.843558 0.825782 -0.105640
C124  C     C_R   0.367288 0.867197 0.875744 -0.109271
C125  C     C_R   0.342732 0.823314 0.964999 -0.150436
C126  C     C_R   0.405901 0.756398 0.005133 -0.059087
H58   H     H_    0.587586 0.766417 0.828329 0.099886
H59   H     H_    0.473937 0.877029 0.756563 0.122563
H60   H     H_    0.318758 0.920614 0.845812 0.108899
H61   H     H_    0.275213 0.843327 0.003460 0.099629
H62   H     H_    0.386960 0.725276 0.075117 0.102681
C127  C     C_R   0.936229 0.544879 0.291284 0.171617
C128  C     C_R   0.848603 0.592373 0.322257 -0.175123
C129  C     C_R   0.826423 0.684095 0.303658 -0.154556
C130  C     C_R   0.890579 0.728953 0.250259 -0.141143
C131  C     C_R   0.977493 0.681949 0.217948 -0.124191
C132  C     C_R   0.000981 0.589924 0.241497 -0.055346
H63   H     H_    0.798331 0.558110 0.362860 0.109283
H64   H     H_    0.759258 0.720431 0.329568 0.115732
H65   H     H_    0.872750 0.800270 0.233004 0.103705
H66   H     H_    0.026719 0.716799 0.175625 0.115973
H67   H     H_    0.068662 0.553043 0.219521 0.117765
C133  C     C_R   0.987659 0.476111 0.728943 0.182112
C134  C     C_R   0.898770 0.475288 0.756881 -0.135079
C135  C     C_R   0.876830 0.395173 0.795840 -0.139906
C136  C     C_R   0.942610 0.316360 0.812247 -0.098349
C137  C     C_R   0.031183 0.316747 0.784270 -0.121649
C138  C     C_R   0.054066 0.396254 0.740462 -0.085624
H68   H     H_    0.846901 0.536419 0.747397 0.101508
H69   H     H_    0.808861 0.394042 0.813778 0.119687
H70   H     H_    0.925161 0.254603 0.845075 0.099297
H71   H     H_    0.081801 0.255113 0.795633 0.097897
H72   H     H_    0.122767 0.396513 0.717631 0.098554
O25   O     O_3   0.752183 0.983520 0.752907 -0.549406
C139  C     C_3   0.777991 0.890170 0.779411 0.078957
H73   H     H_    0.816917 0.862752 0.721632 0.124060
H74   H     H_    0.719268 0.863565 0.815192 0.116614
C140  C     C_3   0.835898 0.858974 0.841231 -0.610405
H75   H     H_    0.798533 0.884319 0.900211 0.246729
H76   H     H_    0.856656 0.785668 0.862531 0.232651
H77   H     H_    0.895762 0.883424 0.807123 0.247158
O26   O     O_3   0.258261 0.965468 0.258502 -0.562855
C141  C     C_3   0.273038 0.877920 0.258040 0.149949
H78   H     H_    0.235561 0.841850 0.321757 0.143571
H79   H     H_    0.344470 0.840632 0.246365 0.103161
C142  C     C_3   0.240871 0.881473 0.183822 -0.767014
H80   H     H_    0.269260 0.925600 0.120811 0.259262
H81   H     H_    0.261860 0.814802 0.174076 0.172858
H82   H     H_    0.167703 0.907197 0.199678 0.227848
O27   O     O_3   0.029938 0.743140 0.742670 -0.560693
C143  C     C_3   0.116918 0.732342 0.742066 0.139647
H83   H     H_    0.153062 0.767893 0.677042 0.141060
H84   H     H_    0.155457 0.661478 0.756891 0.108412
C144  C     C_3   0.111016 0.770472 0.812715 -0.739959
H85   H     H_    0.065934 0.744317 0.876362 0.258288
H86   H     H_    0.177183 0.751119 0.822510 0.174043
H87   H     H_    0.086041 0.843583 0.792681 0.227795
O28   O     O_3   0.985974 0.252852 0.252838 -0.547751
C145  C     C_3   0.075559 0.206781 0.222986 0.144063
H88   H     H_    0.110818 0.176317 0.275460 0.121089
H89   H     H_    0.111769 0.252677 0.169143 0.093113
C146  C     C_3   0.078497 0.132759 0.190515 -0.744809
H90   H     H_    0.049268 0.160703 0.134037 0.207979
H91   H     H_    0.147752 0.093015 0.170784 0.222011
H92   H     H_    0.040403 0.087775 0.242983 0.270319
O29   O     O_3   0.740976 0.740829 0.037157 -0.558926
C147  C     C_3   0.726709 0.739623 0.124738 0.140430
H93   H     H_    0.763766 0.674933 0.160257 0.142845
H94   H     H_    0.655212 0.752249 0.161703 0.102280
C148  C     C_3   0.760055 0.812348 0.122280 -0.752731
H95   H     H_    0.729859 0.876834 0.080963 0.256947
H96   H     H_    0.741339 0.818554 0.189630 0.171552
H97   H     H_    0.833053 0.796681 0.094899 0.233246
O30   O     O_3   0.263810 0.267699 0.935626 -0.564159
C149  C     C_3   0.217226 0.208699 0.005140 0.172254
H98   H     H_    0.148016 0.242116 0.031834 0.164845
H99   H     H_    0.245551 0.175701 0.062530 0.122384
C150  C     C_3   0.211790 0.141067 0.968910 -0.762764
H100  H     H_    0.276984 0.110521 0.928714 0.283019
H101  H     H_    0.186791 0.087708 0.023479 0.169467
H102  H     H_    0.165543 0.173950 0.926727 0.203593

loop_
_geom_bond_atom_site_label_1
_geom_bond_atom_site_label_2
_geom_bond_distance
_ccdc_geom_bond_type
Cu2   O14   1.988758 S    
C8    C52   1.492381 S    
O6    C14   1.304879 A    
C38   C73   1.478367 S    
C121  C126  1.403783 A    
C7    C51   1.493597 S    
C98   C99   1.396306 A    
C40   C52   1.422428 A    
C81   C82   1.396279 A    
C148  H95   1.109045 S    
C28   C36   1.394521 A    
C5    C46   1.409690 A    
C15   O21   1.298412 A    
C119  C120  1.394597 A    
C9    C53   1.494812 S    
C69   C70   1.393116 A    
C11   C49   1.483905 S    
C30   C34   1.399384 A    
C17   O23   1.300968 A    
C1    C37   1.408282 A    
C106  C107  1.394518 A    
H4    C35   1.082579 S    
C76   C77   1.395900 A    
C135  H69   1.081095 S    
C116  C117  1.398765 A    
C57   C66   1.417923 A    
O1    C17   1.307269 A    
O26   C141  1.412356 S    
C118  H55   1.079985 S    
C23   C34   1.405535 A    
C13   O19   1.303201 A    
C66   O30   1.402988 S    
C15   C59   1.491455 S    
C130  H65   1.081190 S    
C97   C98   1.402773 A    
C147  H93   1.112511 S    
C150  H102  1.110594 S    
C17   C55   1.490756 S    
C74   H18   1.083021 S    
C42   C54   1.427788 A    
C144  H85   1.109816 S    
C13   C57   1.478593 S    
O9    Cu4   1.977572 S    
C39   C79   1.473813 S    
C125  H61   1.080488 S    
O3    C15   1.306021 A    
C26   C32   1.402324 A    
C105  H44   1.082357 S    
C2    C20   1.493402 S    
C117  H54   1.082488 S    
C75   H19   1.081905 S    
O8    Cu5   1.986796 S    
Cu6   O18   1.991865 S    
C60   C63   1.414689 A    
O25   C139  1.413942 S    
C138  H72   1.081775 S    
C85   C86   1.403309 A    
C109  C114  1.402761 A    
C114  H52   1.083145 S    
C70   C71   1.397422 A    
C123  H59   1.081334 S    
Cu1   O13   1.988759 S    
C7    O13   1.302091 A    
C127  C132  1.398901 A    
C68   C69   1.393288 A    
C27   C35   1.395141 A    
C112  H50   1.082245 S    
C95   C96   1.394603 A    
C24   C30   1.401772 A    
Cu1   Cu2   2.693913 S    
C9    O15   1.299620 A    
C118  C119  1.393819 A    
C64   O28   1.384609 S    
Cu3   O15   1.982958 S    
C1    C44   1.412127 A    
C77   H21   1.079995 S    
C139  H74   1.115083 S    
Cu5   Cu6   2.685434 S    
C20   C31   1.400430 A    
C104  C105  1.395242 A    
C134  H68   1.082871 S    
C25   C31   1.396279 A    
C2    C38   1.408915 A    
O28   C145  1.415502 S    
C147  C148  1.518155 S    
C37   C49   1.415745 A    
C88   H30   1.082236 S    
C42   C97   1.477437 S    
C148  H96   1.102588 S    
C40   C85   1.478885 S    
C144  H87   1.110593 S    
C12   O18   1.295633 A    
C51   C63   1.411803 A    
C84   H27   1.081620 S    
C141  C142  1.523763 S    
C124  H60   1.080585 S    
C54   C66   1.419452 A    
C109  C110  1.402562 A    
Cu4   O16   1.982957 S    
C81   H24   1.082133 S    
H9    C30   1.082912 S    
O7    C11   1.298642 A    
C146  H90   1.109954 S    
C53   C65   1.406017 A    
C101  H41   1.078600 S    
C97   C102  1.402522 A    
C104  H43   1.083171 S    
C14   C58   1.492863 S    
C46   C121  1.480433 S    
C65   O29   1.380775 S    
C78   H22   1.082765 S    
C63   O27   1.381074 S    
C128  C129  1.395013 A    
C140  H77   1.110663 S    
C88   C89   1.397343 A    
C18   O24   1.298856 A    
C45   C57   1.419490 A    
C130  C131  1.395884 A    
O10   Cu3   1.977571 S    
C83   H26   1.077993 S    
O4    C16   1.307116 A    
O11   Cu2   1.981851 S    
C93   C94   1.398043 A    
C139  C140  1.520699 S    
O1    Cu1   1.978189 S    
C37   C67   1.482757 S    
O2    Cu2   1.978189 S    
Cu2   O23   1.984557 S    
C21   C27   1.402986 A    
C83   C84   1.393631 A    
C59   C64   1.412885 A    
C43   C55   1.417975 A    
C131  C132  1.394205 A    
C71   C72   1.398734 A    
C79   C84   1.400173 A    
C145  H88   1.114901 S    
H2    C31   1.082884 S    
C121  C122  1.404858 A    
C82   H25   1.076681 S    
C142  H81   1.107145 S    
H7    C26   1.082525 S    
C73   C78   1.401708 A    
C80   C81   1.393698 A    
H11   C28   1.082955 S    
O30   C149  1.427467 S    
C23   C29   1.401888 A    
C129  H64   1.082267 S    
Cu5   O20   1.985573 S    
H6    C33   1.083101 S    
C99   H39   1.081713 S    
O12   C8    1.309055 A    
C89   H31   1.075569 S    
C5    C41   1.413411 A    
C38   C50   1.427585 A    
C117  C118  1.397875 A    
C143  H84   1.115592 S    
C136  H70   1.081603 S    
C113  C114  1.395685 A    
C150  H100  1.107627 S    
C49   C61   1.410004 A    
C4    C22   1.482454 S    
C5    C23   1.487091 S    
C47   C127  1.477513 S    
C129  C130  1.397658 A    
C39   C51   1.417063 A    
C19   C25   1.404597 A    
C6    C42   1.407881 A    
C124  C125  1.397079 A    
O5    Cu5   1.980497 S    
C102  H42   1.083225 S    
C41   C53   1.420933 A    
O27   C143  1.411199 S    
C4    C40   1.402252 A    
C122  C123  1.395068 A    
C14   O20   1.297462 A    
C133  C138  1.401817 A    
C16   C60   1.493194 S    
O11   C7    1.307119 A    
C92   C93   1.397285 A    
C74   C75   1.395924 A    
C46   C58   1.423402 A    
C107  C108  1.396085 A    
C145  H89   1.108775 S    
C113  H51   1.076151 S    
C105  C106  1.397208 A    
C16   O22   1.297249 A    
O7    Cu6   1.986798 S    
C96   H37   1.079978 S    
C12   C50   1.494962 S    
C101  C102  1.394878 A    
C134  C135  1.395683 A    
C94   H35   1.080301 S    
Cu3   O22   1.993453 S    
C22   C28   1.402525 A    
C120  H57   1.078268 S    
C140  H76   1.110667 S    
C99   C100  1.394768 A    
O10   C10   1.300114 A    
O3    Cu3   1.987530 S    
H5    C34   1.082795 S    
C137  C138  1.397280 A    
C45   C115  1.483811 S    
C79   C80   1.402143 A    
C100  C101  1.394162 A    
C92   H33   1.083154 S    
C73   C74   1.403774 A    
O9    C9    1.306583 A    
C91   C96   1.399644 A    
C144  H86   1.101965 S    
C89   C90   1.394751 A    
C136  C137  1.396236 A    
O2    C18   1.311366 A    
C112  C113  1.396715 A    
C127  C128  1.402348 A    
O4    Cu4   1.987532 S    
C94   C95   1.394520 A    
C58   C65   1.408569 A    
C3    C21   1.482982 S    
C62   O26   1.383399 S    
C87   H29   1.080550 S    
C11   O17   1.299690 A    
C93   H34   1.081769 S    
C131  H66   1.080544 S    
C149  H99   1.112426 S    
C85   C90   1.402099 A    
C8    O14   1.297767 A    
C56   C61   1.408207 A    
C106  H45   1.078797 S    
C2    C43   1.404792 A    
C140  H75   1.110570 S    
C87   C88   1.395300 A    
C145  C146  1.525684 S    
C111  H49   1.079835 S    
C142  H82   1.110169 S    
C18   C56   1.497608 S    
C126  H62   1.082974 S    
C44   C109  1.476283 S    
C100  H40   1.076779 S    
C41   C91   1.480251 S    
C20   C26   1.406945 A    
C19   C32   1.402167 A    
C6    C24   1.489291 S    
H8    C25   1.082934 S    
H10   C29   1.083041 S    
C82   C83   1.393298 A    
C149  H98   1.094779 S    
C122  H58   1.083545 S    
Cu5   O17   1.991867 S    
C115  C120  1.400109 A    
C70   H15   1.076477 S    
C10   C54   1.484892 S    
C69   H14   1.082861 S    
O8    C12   1.308230 A    
C146  H91   1.107111 S    
C90   H32   1.083178 S    
C141  H78   1.111954 S    
H3    C36   1.082691 S    
C133  C134  1.403441 A    
C150  H101  1.108695 S    
C103  C104  1.402147 A    
C48   C60   1.423602 A    
C132  H67   1.078250 S    
C3    C48   1.404584 A    
C29   C33   1.397376 A    
C76   H20   1.080365 S    
C142  H80   1.108494 S    
C72   H17   1.080925 S    
H12   C27   1.082682 S    
C67   C72   1.404427 A    
C24   C33   1.404148 A    
C139  H73   1.114447 S    
O12   Cu1   1.981851 S    
O6    Cu6   1.980497 S    
C135  C136  1.395094 A    
C43   C103  1.475880 S    
C61   O25   1.384871 S    
C110  H48   1.082595 S    
C128  H63   1.083069 S    
C143  H83   1.112238 S    
C119  H56   1.078433 S    
C147  H94   1.116139 S    
C137  H71   1.080723 S    
C48   C133  1.480827 S    
C115  C116  1.406146 A    
C44   C56   1.425560 A    
C6    C45   1.399696 A    
C86   H28   1.082750 S    
C146  H92   1.108037 S    
C55   C62   1.411245 A    
C52   C64   1.413891 A    
C108  H47   1.080374 S    
C50   C62   1.413723 A    
C103  C108  1.400006 A    
C71   H16   1.079416 S    
C143  C144  1.518846 S    
C107  H46   1.079023 S    
C47   C59   1.421552 A    
C4    C47   1.404318 A    
Cu4   O21   1.993452 S    
C1    C19   1.486732 S    
C125  C126  1.399619 A    
C149  C150  1.531767 S    
C123  C124  1.396224 A    
C148  H97   1.110342 S    
C67   C68   1.407405 A    
C116  H53   1.083207 S    
C75   C76   1.394771 A    
C22   C35   1.400510 A    
C10   O16   1.300762 A    
H1    C32   1.082790 S    
C111  C112  1.396500 A    
Cu6   O19   1.985573 S    
C110  C111  1.393670 A    
C80   H23   1.083159 S    
C3    C39   1.403589 A    
C91   C92   1.405052 A    
Cu3   Cu4   2.687896 S    
C141  H79   1.115696 S    
C68   H13   1.083807 S    
C98   H38   1.083191 S    
C95   H36   1.078112 S    
C86   C87   1.394942 A    
Cu1   O24   1.984557 S    
C77   C78   1.396053 A    
O5    C13   1.294471 A    
C21   C36   1.400513 A    
O29   C147  1.409727 S    
