data_mof_unit_pretest_1192.cif
_audit_creation_date              2013-03-05T16:13:23-0500
_audit_creation_method            fapswitch 2.2
_symmetry_space_group_name_H-M    P1
_symmetry_Int_Tables_number       1
_space_group_crystal_system       triclinic
_cell_length_a                    10.719628
_cell_length_b                    9.953976
_cell_length_c                    19.281005
_cell_angle_alpha                 89.905276
_cell_angle_beta                  92.923648
_cell_angle_gamma                 90.623955
_cell_volume                      2054.53860345

loop_
_atom_site_label
_atom_site_type_symbol
_atom_site_description
_atom_site_fract_x
_atom_site_fract_y
_atom_site_fract_z
_atom_type_partial_charge
O1    O     O_R   0.316770 0.614620 0.500000 -0.623309
O2    O     O_R   0.683230 0.385380 0.500000 -0.623306
O3    O     O_R   0.683230 0.614620 0.500000 -0.584724
O4    O     O_R   0.316770 0.385380 0.500000 -0.584724
C1    C     C_R   0.872309 0.501251 0.498464 -0.039773
C2    C     C_R   0.127691 0.498749 0.501536 -0.039773
C3    C     C_R   0.260271 0.499426 0.500670 0.890419
C4    C     C_R   0.739729 0.500573 0.499329 0.890419
O5    O     O_R   0.500030 0.614710 0.398180 -0.608259
O6    O     O_R   0.499970 0.385290 0.601820 -0.608262
O7    O     O_R   0.499970 0.614710 0.601820 -0.619999
O8    O     O_R   0.500030 0.385290 0.398180 -0.619999
C5    C     C_R   0.504275 0.500186 0.365990 0.926493
C6    C     C_R   0.495725 0.499814 0.634010 0.926492
Zn1   Zn    Zn3+2 0.500000 0.653120 0.500000 1.014716
Zn2   Zn    Zn3+2 0.500000 0.346880 0.500000 1.014716
C7    C     C_R   0.060974 0.381202 0.484423 -0.140204
C8    C     C_R   0.939026 0.618798 0.515577 -0.140205
C9    C     C_R   0.933074 0.382921 0.482014 -0.170919
C10   C     C_R   0.066926 0.617079 0.517986 -0.170921
H1    H     H_    0.106730 0.288551 0.472405 0.216849
H2    H     H_    0.893270 0.711449 0.527594 0.216849
H3    H     H_    0.882176 0.292072 0.467069 0.210347
H4    H     H_    0.117823 0.707928 0.532931 0.210347
C11   C     C_R   0.479352 0.377708 0.745200 -0.182662
C12   C     C_R   0.520647 0.622292 0.254800 -0.182661
C13   C     C_R   0.525510 0.379302 0.255351 -0.242486
C14   C     C_R   0.474491 0.620698 0.744649 -0.242486
H5    H     H_    0.476419 0.283402 0.717539 0.243671
H6    H     H_    0.523579 0.716598 0.282460 0.243671
H7    H     H_    0.529106 0.285424 0.283471 0.227922
H8    H     H_    0.470895 0.714576 0.716529 0.227923
C15   C     C_R   0.476141 0.375951 0.817207 0.264777
C16   C     C_R   0.523858 0.624048 0.182793 0.264777
C17   C     C_R   0.526239 0.377174 0.183249 0.279107
C18   C     C_R   0.473762 0.622826 0.816751 0.279106
C19   C     C_R   0.477266 0.499510 0.853181 -0.169240
C20   C     C_R   0.522734 0.500490 0.146818 -0.169240
C21   C     C_R   0.572746 0.073127 0.547711 -0.035613
C22   C     C_R   0.427254 0.926873 0.452289 -0.035612
C23   C     C_R   0.430108 0.070249 0.450666 -0.042184
C24   C     C_R   0.569892 0.929751 0.549334 -0.042185
C25   C     C_R   0.483775 0.499367 0.709034 -0.160242
C26   C     C_R   0.516225 0.500633 0.290966 -0.160242
C27   C     C_R   0.387494 0.539928 0.966210 -0.050304
C28   C     C_R   0.612507 0.460072 0.033790 -0.050304
C29   C     C_R   0.399296 0.540492 0.038093 -0.063984
C30   C     C_R   0.600704 0.459508 0.961907 -0.063983
H9    H     H_    0.300605 0.570673 0.940031 0.152256
H10   H     H_    0.699395 0.429327 0.059969 0.152257
H11   H     H_    0.321319 0.571458 0.067679 0.152688
H12   H     H_    0.678681 0.428542 0.932321 0.152687
N1    N     N_R   0.500000 0.857200 0.500000 -0.166505
N2    N     N_R   0.500000 0.142800 0.500000 -0.166504
C31   C     C_R   0.511715 0.500521 0.071634 0.165387
C32   C     C_R   0.488285 0.499479 0.928366 0.165389
C33   C     C_2   0.666221 0.145625 0.592642 0.998668
O9    O     O_2   0.640672 0.181291 0.650672 -0.583652
O10   O     O_R   0.787704 0.161379 0.570862 -0.817215
H13   H     H_    0.844856 0.209047 0.606643 0.348807
C34   C     C_2   0.333777 0.854375 0.407358 0.998668
O11   O     O_2   0.359326 0.818705 0.349329 -0.583653
O12   O     O_R   0.212294 0.838627 0.429139 -0.817216
H14   H     H_    0.155140 0.790959 0.393358 0.348808
C35   C     C_2   0.363667 0.137712 0.391370 0.941087
O13   O     O_2   0.282817 0.219578 0.400857 -0.619832
O14   O     O_R   0.387936 0.099399 0.323698 -0.759431
H15   H     H_    0.333153 0.147465 0.287335 0.363842
C36   C     C_2   0.636334 0.862288 0.608630 0.941087
O15   O     O_2   0.717184 0.780422 0.599142 -0.619833
O16   O     O_R   0.612064 0.900600 0.676302 -0.759429
H16   H     H_    0.666847 0.852534 0.712665 0.363842
N3    N     N_R   0.472540 0.248603 0.852788 0.224201
O17   O     O_R   0.407451 0.233216 0.907458 -0.305187
O18   O     O_R   0.523710 0.143632 0.826411 -0.266308
N4    N     N_R   0.527458 0.751396 0.147212 0.224201
O19   O     O_R   0.476284 0.856366 0.173587 -0.266310
O20   O     O_R   0.592553 0.766785 0.092544 -0.305186
N5    N     N_R   0.526736 0.249508 0.148191 0.221788
O21   O     O_R   0.585837 0.148608 0.176940 -0.290256
O22   O     O_R   0.455676 0.228243 0.092461 -0.300736
N6    N     N_R   0.473266 0.750492 0.851809 0.221788
O23   O     O_R   0.544325 0.771756 0.907539 -0.300737
O24   O     O_R   0.414167 0.851393 0.823059 -0.290254

loop_
_geom_bond_atom_site_label_1
_geom_bond_atom_site_label_2
_geom_bond_distance
_ccdc_geom_bond_type
N3    O17   1.301376 A    
C11   C25   1.397971 A    
C12   C26   1.397973 A    
Zn1   N1    2.031407 S    
C18   C19   1.413142 A    
N4    O20   1.301378 A    
C24   N1    1.380383 A    
O7    C6    1.301797 A    
C33   O10   1.395679 S    
C21   N2    1.368145 A    
C21   C33   1.474142 S    
C36   O16   1.397860 S    
C34   O12   1.395678 S    
O5    C5    1.301215 A    
O1    C3    1.291265 A    
C19   C32   1.448431 S    
O7    Zn1   1.999470 S    
C13   C26   1.397274 A    
C12   C16   1.390630 A    
C20   C31   1.448429 S    
C10   H4    1.082849 S    
C27   C32   1.397402 A    
C18   N6    1.440547 S    
C35   O14   1.397861 S    
C28   C31   1.397403 A    
O1    Zn1   1.997095 S    
O2    Zn2   1.997094 S    
O10   H13   1.013941 S    
C16   C20   1.412642 A    
N3    O18   1.301534 A    
C36   O15   1.216842 D    
O4    C3    1.292869 A    
C21   C24   1.427480 A    
C27   C29   1.385319 A    
C11   H5    1.079775 S    
C28   C30   1.385319 A    
C13   H7    1.079641 S    
O14   H15   1.014079 S    
O8    Zn2   1.999470 S    
C14   H8    1.079641 S    
C17   C20   1.413143 A    
N4    O19   1.301531 A    
O3    C4    1.292870 A    
O6    C6    1.301214 A    
N5    O22   1.301312 A    
C29   H11   1.083493 S    
C1    C8    1.395837 A    
C13   C17   1.390825 A    
N6    O23   1.301311 A    
C24   C36   1.479902 S    
C15   C19   1.412644 A    
C22   C34   1.474142 S    
O12   H14   1.013941 S    
O4    Zn2   2.005287 S    
C9    H3    1.082850 S    
C27   H9    1.083373 S    
C15   N3    1.441438 S    
C22   C23   1.427480 A    
C12   H6    1.079775 S    
N6    O24   1.301372 A    
O3    Zn1   2.005286 S    
C29   C31   1.399592 A    
C30   C32   1.399591 A    
C2    C7    1.395836 A    
C8    H2    1.080260 S    
O2    C4    1.291264 A    
C1    C4    1.422104 S    
C23   C35   1.479902 S    
C2    C3    1.422105 S    
C1    C9    1.396875 A    
C2    C10   1.396876 A    
C28   H10   1.083372 S    
C14   C25   1.397274 A    
O5    Zn1   2.000712 S    
O16   H16   1.014080 S    
O6    Zn2   2.000712 S    
C33   O9    1.219679 D    
C17   N5    1.440546 S    
C7    C9    1.369747 A    
C8    C10   1.369747 A    
C35   O13   1.216842 D    
C34   O11   1.219678 D    
Zn2   N2    2.031407 S    
C23   N2    1.380385 A    
N5    O21   1.301373 A    
C30   H12   1.083493 S    
O8    C5    1.301798 A    
C14   C18   1.390825 A    
C22   N1    1.368147 A    
C16   N4    1.441437 S    
C5    C26   1.458689 S    
C11   C15   1.390630 A    
C6    C25   1.458690 S    
C7    H1    1.080261 S    
