data_mof_unit_pretest_889.cif
_audit_creation_date              2012-12-10T18:11:39-0500
_audit_creation_method            fapswitch 2.2
_symmetry_space_group_name_H-M    P1
_symmetry_Int_Tables_number       1
_space_group_crystal_system       triclinic
_cell_length_a                    10.462006
_cell_length_b                    12.660516
_cell_length_c                    13.083594
_cell_angle_alpha                 81.337014
_cell_angle_beta                  92.015968
_cell_angle_gamma                 102.030125
_cell_volume                      1675.57057782

loop_
_atom_site_label
_atom_site_type_symbol
_atom_type_description
_atom_site_fract_x
_atom_site_fract_y
_atom_site_fract_z
_atom_type_partial_charge
C1    C     C_R   0.480249 0.437847 0.691626 0.855461
C2    C     C_3   0.055567 0.567253 0.417686 -0.198276
C3    C     C_3   0.986212 0.601948 0.505433 -0.135712
C4    C     C_3   0.877547 0.501402 0.500833 0.032271
C5    C     C_R   0.408542 0.707934 0.059009 0.215798
C6    C     C_R   0.505124 0.600185 0.198305 -0.097399
C7    C     C_R   0.489781 0.293192 0.845816 0.236227
C8    C     C_R   0.517890 0.275388 0.951763 -0.169174
C9    C     C_R   0.516126 0.355280 0.013159 -0.259777
C10   C     C_R   0.477741 0.454211 0.972479 0.102333
C11   C     C_R   0.438033 0.468136 0.868899 0.022591
C12   C     C_R   0.741966 0.500566 0.500525 0.858873
C13   C     C_R   0.474088 0.537970 0.032268 0.006671
C14   C     C_R   0.413292 0.627775 0.993455 0.078616
C15   C     C_R   0.357408 0.630853 0.892781 0.179761
C16   C     C_R   0.370051 0.551225 0.833154 -0.250282
C17   C     C_R   0.527953 0.532290 0.131387 -0.252329
C18   C     C_R   0.452772 0.691194 0.161410 -0.225010
C19   C     C_R   0.463158 0.396444 0.802918 -0.203203
C20   C     C_R   0.406415 0.119775 0.301625 0.133234
C21   C     C_R   0.641011 0.791447 0.640770 -0.020780
C22   C     C_R   0.677597 0.894357 0.672440 0.173641
C23   C     C_R   0.513515 0.561676 0.308500 0.859321
C24   C     C_R   0.637188 0.983377 0.613370 -0.294025
C25   C     C_R   0.560168 0.969279 0.524273 -0.010791
C26   C     C_R   0.526542 0.863188 0.495080 0.183281
C27   C     C_R   0.511144 0.055322 0.463399 -0.038156
C28   C     C_R   0.465721 0.041308 0.361866 0.079145
C29   C     C_R   0.464897 0.941857 0.327717 -0.271782
C30   C     C_R   0.456056 0.850799 0.402156 0.191642
C31   C     C_R   0.499685 0.151680 0.500339 -0.113782
C32   C     C_R   0.380432 0.205560 0.349085 0.327562
C33   C     C_R   0.257868 0.499112 0.500003 0.835978
C34   C     C_3   0.943544 0.431482 0.582984 -0.182594
C35   C     C_3   0.054971 0.532042 0.587668 -0.177496
C36   C     C_3   0.121968 0.497656 0.499872 0.037290
C37   C     C_3   0.013254 0.396966 0.495266 -0.139488
C38   C     C_3   0.944330 0.466796 0.413168 -0.166435
H1    H     H_    0.104561 0.558568 0.658689 0.126524
H2    H     H_    0.583302 0.471562 0.161564 0.151960
H3    H     H_    0.537371 0.333240 0.093743 0.154668
H4    H     H_    0.542165 0.199802 0.988612 0.156259
H5    H     H_    0.321505 0.552497 0.758644 0.164214
H6    H     H_    0.427399 0.927424 0.251977 0.164256
H7    H     H_    0.540847 0.171292 0.573581 0.161719
H8    H     H_    0.674905 0.722583 0.683665 0.158899
H9    H     H_    0.892937 0.376538 0.650221 0.133942
H10   H     H_    0.670068 0.063230 0.636080 0.150310
H11   H     H_    0.028319 0.313489 0.490978 0.144039
H12   H     H_    0.894563 0.440521 0.342107 0.135956
H13   H     H_    0.102598 0.620964 0.348565 0.133604
H14   H     H_    0.971587 0.685578 0.509573 0.146886
H15   H     H_    0.441068 0.746673 0.213710 0.158402
N1    N     N_R   0.432930 0.222190 0.444670 -0.128554
N2    N     N_R   0.566370 0.776980 0.554790 -0.146868
O1    O     O_R   0.467970 0.366730 0.627150 -0.609902
O2    O     O_R   0.510820 0.544830 0.662520 -0.611760
O3    O     O_R   0.664630 0.410960 0.482340 -0.610140
O4    O     O_R   0.707470 0.589060 0.517710 -0.621455
O5    O     O_R   0.489180 0.455170 0.337480 -0.606652
O6    O     O_R   0.532030 0.633270 0.372850 -0.607101
O7    O     O_R   0.292530 0.410940 0.482290 -0.635826
O8    O     O_R   0.335370 0.589040 0.517660 -0.629061
Zn1   Zn    Zn3+2 0.471390 0.381080 0.476380 0.928420
Zn2   Zn    Zn3+2 0.528610 0.618920 0.523620 0.924777
N3    N     N_2   0.482248 0.208370 0.783046 -0.289538
H16   H     H_    0.398778 0.197641 0.738224 0.245627
C39   C     C_3   0.515344 0.105367 0.827017 -0.866917
H17   H     H_    0.505096 0.050970 0.767010 0.248610
H18   H     H_    0.447337 0.063757 0.890847 0.245883
H19   H     H_    0.618133 0.118636 0.854940 0.253529
C40   C     C_3   0.291657 0.275912 0.294321 -0.844127
H20   H     H_    0.257227 0.325626 0.344037 0.272526
H21   H     H_    0.341358 0.329884 0.226274 0.237781
H22   H     H_    0.201416 0.223337 0.268319 0.210216
C41   C     C_3   0.363602 0.107086 0.190866 -0.971810
H23   H     H_    0.279450 0.037225 0.190779 0.246396
H24   H     H_    0.334520 0.179889 0.146515 0.260616
H25   H     H_    0.446006 0.092547 0.147475 0.237057
N4    N     N_2   0.760416 0.909286 0.760161 -0.309583
H26   H     H_    0.803666 0.989469 0.764903 0.228089
C42   C     C_3   0.706747 0.850632 0.858006 -0.797893
H27   H     H_    0.782765 0.860969 0.919126 0.244344
H28   H     H_    0.674656 0.761947 0.854467 0.249025
H29   H     H_    0.622963 0.883803 0.879629 0.240216
C43   C     C_3   0.322591 0.778404 0.402989 -0.829570
H30   H     H_    0.282505 0.758641 0.482580 0.251771
H31   H     H_    0.249838 0.819935 0.358264 0.201615
H32   H     H_    0.325135 0.706798 0.364972 0.247627
N5    N     N_2   0.279065 0.707225 0.853128 -0.309529
H33   H     H_    0.182573 0.670451 0.843625 0.222089
C44   C     C_3   0.330159 0.782680 0.762421 -0.790051
H34   H     H_    0.431195 0.825618 0.776998 0.258051
H35   H     H_    0.268663 0.844757 0.744140 0.239790
H36   H     H_    0.329166 0.739253 0.694588 0.243819
C45   C     C_3   0.353852 0.809300 0.026064 -0.894364
H37   H     H_    0.405017 0.857700 0.956197 0.256535
H38   H     H_    0.247143 0.786814 0.011847 0.255712
H39   H     H_    0.367591 0.863710 0.086364 0.215739

loop_
_geom_bond_atom_site_label_1
_geom_bond_atom_site_label_2
_ccdc_geom_bond_type
N3    C39   S    
O8    Zn2   S    
C34   C37   S    
C35   C36   S    
C41   H25   S    
C26   N2    A    
C7    C8    A    
C32   C40   S    
C11   C19   A    
C29   C30   A    
C36   C37   S    
C1    O1    A    
C41   H24   S    
C33   O7    A    
C43   H31   S    
C15   C16   A    
C45   H39   S    
C33   C36   S    
C20   C41   S    
C34   C35   S    
C7    C19   A    
O7    Zn1   S    
C18   H15   S    
C39   H17   S    
C12   O4    A    
C8    C9    A    
C45   H38   S    
O1    Zn1   S    
C30   C43   S    
C9    C10   A    
C12   O3    A    
N3    H16   S    
C21   C22   A    
C40   H22   S    
C32   N1    A    
N2    Zn2   S    
O3    Zn1   S    
C23   O5    A    
C6    C18   A    
C4    C34   S    
C1    C19   S    
C27   C31   A    
C24   H10   S    
C24   C25   A    
C40   H21   S    
C10   C11   A    
O2    Zn2   S    
C21   N2    A    
C43   H30   S    
N4    H26   S    
C5    C18   A    
C20   C28   A    
C25   C26   A    
C43   H32   S    
C44   H36   S    
C17   H2    S    
C35   H1    S    
C37   C38   S    
C1    O2    A    
C37   H11   S    
C11   C16   A    
C2    C38   S    
N5    C44   S    
C3    C35   S    
C33   O8    A    
C45   H37   S    
C44   H35   S    
C41   H23   S    
C16   H5    S    
C5    C14   A    
N4    C42   S    
C4    C38   S    
C26   C30   A    
C42   H28   S    
C29   H6    S    
C22   C24   A    
C4    C12   S    
C3    C4    S    
C5    C45   S    
C21   H8    S    
C20   C32   A    
C2    C36   S    
C6    C17   A    
C28   C29   A    
C8    H4    S    
C40   H20   S    
C10   C13   A    
C3    H14   S    
C38   H12   S    
C25   C27   A    
C42   H29   S    
C9    H3    S    
C13   C17   A    
O5    Zn1   S    
C2    C3    S    
C22   N4    S    
O4    Zn2   S    
C7    N3    S    
N5    H33   S    
N1    Zn1   S    
C39   H19   S    
C6    C23   S    
C44   H34   S    
C31   N1    A    
C2    H13   S    
O6    Zn2   S    
C23   O6    A    
C39   H18   S    
C42   H27   S    
C31   H7    S    
C27   C28   A    
C14   C15   A    
C34   H9    S    
C13   C14   A    
C15   N5    S    
