data_mof_unit_pretest_1916.cif
_audit_creation_date              2012-12-11T18:32:14-0500
_audit_creation_method            fapswitch 2.2
_symmetry_space_group_name_H-M    P1
_symmetry_Int_Tables_number       1
_space_group_crystal_system       triclinic
_cell_length_a                    8.281095
_cell_length_b                    14.400585
_cell_length_c                    18.789289
_cell_angle_alpha                 94.967946
_cell_angle_beta                  92.733204
_cell_angle_gamma                 91.90225
_cell_volume                      2228.14594439

loop_
_atom_site_label
_atom_site_type_symbol
_atom_type_description
_atom_site_fract_x
_atom_site_fract_y
_atom_site_fract_z
_atom_type_partial_charge
Ba1   Ba    Ba6+2 0.841340 0.543980 0.464170 1.703700
Ba2   Ba    Ba6+2 0.348470 0.456100 0.535830 1.715531
C1    C     C_3   0.582645 0.871374 0.261569 -0.379736
C2    C     C_3   0.601749 0.778133 0.292640 0.336654
C3    C     C_3   0.498170 0.291969 0.321339 0.292701
C4    C     C_3   0.480872 0.251219 0.243854 -0.416871
C5    C     C_3   0.125138 0.262561 0.741542 0.348494
C6    C     C_3   0.147291 0.237422 0.818233 -0.361513
C7    C     C_3   0.600805 0.210069 0.704608 0.340068
C8    C     C_3   0.583862 0.114476 0.732609 -0.360621
C9    C     C_2   0.331389 0.495496 0.293557 0.113880
C10   C     C_3   0.455936 0.505121 0.238504 0.017035
C11   C     C_2   0.382426 0.519760 0.165085 -0.180773
C12   C     C_3   0.117260 0.745975 0.264664 0.305325
C13   C     C_2   0.222671 0.501672 0.148144 -0.076007
C14   C     C_2   0.116436 0.475942 0.207285 -0.197111
C15   C     C_1   0.177589 0.470216 0.274011 0.037269
C16   C     C_R   0.049951 0.496374 0.930237 0.459200
C17   C     C_R   0.158281 0.502809 0.071354 0.470128
C18   C     C_R   0.086390 0.527005 0.799318 -0.130993
C19   C     C_R   0.032838 0.517364 0.726108 0.053588
C20   C     C_R   0.788013 0.436895 0.757372 0.037249
C21   C     C_R   0.840314 0.446046 0.830011 -0.147096
C22   C     C_R   0.992228 0.489630 0.852320 -0.077967
C23   C     C_3   0.100810 0.767392 0.186928 -0.350791
C24   C     C_R   0.887589 0.469045 0.706197 -0.244382
C25   C     C_R   0.698969 0.937601 0.539077 -0.004438
C26   C     C_R   0.510805 0.802251 0.498621 0.089204
C27   C     C_R   0.364450 0.770617 0.462737 0.160808
C28   C     C_R   0.257165 0.832637 0.435140 0.012974
C29   C     C_R   0.301209 0.926948 0.437137 -0.208824
C30   C     C_R   0.450766 0.960492 0.469466 -0.005985
C31   C     C_R   0.555041 0.899323 0.502987 -0.062405
C32   C     C_R   0.637830 0.093146 0.505776 -0.074125
C33   C     C_R   0.741805 0.033243 0.540287 -0.003430
C34   C     C_3   0.154918 0.753840 0.623858 0.629075
C35   C     C_R   0.679819 0.189586 0.509131 0.008687
C36   C     C_R   0.819002 0.225311 0.548385 0.119228
C37   C     C_R   0.930351 0.165155 0.575571 0.005532
C38   C     C_R   0.889951 0.069656 0.573440 -0.205669
C39   C     C_R   0.494346 0.055265 0.469775 -0.007279
C40   C     C_3   0.075838 0.846561 0.637398 -0.219717
C41   C     C_3   0.003994 0.258502 0.391585 0.296255
C42   C     C_3   0.003789 0.152770 0.378163 -0.374003
C43   C     C_3   0.724361 0.677758 0.675817 0.693374
C44   C     C_3   0.780559 0.719701 0.750596 -0.238887
H1    H     H_    0.726857 0.775940 0.315979 0.111369
H2    H     H_    0.132251 0.886645 0.685975 0.117035
H3    H     H_    0.091828 0.886961 0.590415 0.051169
H4    H     H_    0.945553 0.835255 0.644927 0.041390
H5    H     H_    0.882274 0.279212 0.406136 -0.018512
H6    H     H_    0.094551 0.280301 0.435785 0.062305
H7    H     H_    0.910413 0.128240 0.335693 0.135197
H8    H     H_    0.976814 0.119962 0.427686 0.050311
H9    H     H_    0.124386 0.130760 0.361135 0.110581
H10   H     H_    0.831210 0.653041 0.647463 -0.077990
H11   H     H_    0.606100 0.928971 0.304479 0.084904
H12   H     H_    0.869207 0.778445 0.748080 0.063008
H13   H     H_    0.838136 0.666034 0.781172 0.053056
H14   H     H_    0.675493 0.745966 0.779891 0.121572
H15   H     H_    0.514730 0.773443 0.335350 -0.016314
H16   H     H_    0.457699 0.876089 0.238276 0.115116
H17   H     H_    0.375302 0.307677 0.339169 0.079993
H18   H     H_    0.577949 0.355828 0.324099 0.089687
H19   H     H_    0.404614 0.185851 0.239557 0.132503
H20   H     H_    0.422608 0.301777 0.210370 0.071155
H21   H     H_    0.601873 0.235797 0.223654 0.130477
H22   H     H_    0.670142 0.878962 0.219261 0.136981
H23   H     H_    0.172401 0.718087 0.153622 0.091390
H24   H     H_    0.190989 0.330118 0.737094 0.083751
H25   H     H_    0.993879 0.270235 0.729557 -0.049309
H26   H     H_    0.099775 0.293149 0.855236 0.077678
H27   H     H_    0.080414 0.170693 0.824475 0.111083
H28   H     H_    0.277634 0.229889 0.832448 0.155845
H29   H     H_    0.730824 0.224392 0.696451 -0.043470
H30   H     H_    0.530414 0.208124 0.652625 0.088574
H31   H     H_    0.629385 0.060735 0.693318 0.078348
H32   H     H_    0.454873 0.097298 0.741041 0.156899
H33   H     H_    0.071193 0.673188 0.267831 0.065974
H34   H     H_    0.655272 0.113694 0.784091 0.112017
H35   H     H_    0.464489 0.536748 0.124351 0.120220
H36   H     H_    0.989715 0.457591 0.194306 0.127083
H37   H     H_    0.199259 0.565054 0.814844 0.124903
H38   H     H_    0.762305 0.419282 0.868721 0.103631
H39   H     H_    0.846448 0.462466 0.650589 0.110781
H40   H     H_    0.218523 0.973998 0.413753 0.086371
H41   H     H_    0.974403 0.024562 0.597228 0.083901
H42   H     H_    0.247478 0.752026 0.282117 -0.016679
H43   H     H_    0.779398 0.893869 0.566058 0.087085
H44   H     H_    0.412686 0.099002 0.442571 0.097315
H45   H     H_    0.971839 0.759909 0.167483 0.135864
H46   H     H_    0.146396 0.839732 0.181595 0.117327
H47   H     H_    0.100410 0.719732 0.572696 0.000349
N1    N     N_R   0.201835 0.529547 0.951640 -0.237571
N2    N     N_R   0.254480 0.532503 0.020251 -0.241057
N3    N     N_R   0.005809 0.470329 0.050107 -0.242775
N4    N     N_R   0.953222 0.467145 0.981368 -0.243507
O1    O     O_2   0.878750 0.447310 0.330740 -0.478172
O2    O     O_3   0.647927 0.746741 0.639781 -0.627173
O3    O     O_3   0.027075 0.809045 0.306477 -0.608290
O4    O     O_2   0.310950 0.552720 0.669300 -0.419601
O5    O     O_3   0.058670 0.551200 0.581940 -0.516466
O6    O     O_3   0.562310 0.381900 0.632830 -0.454779
O7    O     O_3   0.132896 0.701015 0.682007 -0.658203
O8    O     O_3   0.636050 0.386930 0.468580 -0.417301
O9    O     O_3   0.150490 0.333430 0.599380 -0.460554
O10   O     O_2   0.264766 0.166910 0.562205 -0.500648
O11   O     O_3   0.187887 0.192167 0.695401 -0.599174
O12   O     O_3   0.131030 0.448880 0.418060 -0.466911
O13   O     O_3   0.553640 0.613150 0.531430 -0.459320
O14   O     O_2   0.393070 0.270760 0.474720 -0.469193
O15   O     O_3   0.568595 0.226742 0.362780 -0.663320
O16   O     O_2   0.451753 0.450104 0.756571 -0.454677
O17   O     O_3   0.540886 0.277500 0.754148 -0.606629
O18   O     O_3   0.627390 0.618170 0.367170 -0.441944
O19   O     O_2   0.781488 0.577167 0.248667 -0.496190
O20   O     O_3   0.041939 0.297591 0.328702 -0.634354
O21   O     O_3   0.570233 0.705336 0.238478 -0.616349
O22   O     O_2   0.796630 0.729270 0.525320 -0.503463
O23   O     O_3   0.039210 0.666640 0.400620 -0.447128
O24   O     O_2   0.917317 0.832507 0.434975 -0.506554
P1    P     P_3+3 0.053470 0.419720 0.342720 1.013378
P2    P     P_3+3 0.625250 0.715650 0.546950 1.017597
P3    P     P_3+3 0.059180 0.787105 0.396068 0.968949
P4    P     P_3+3 0.136230 0.580350 0.657290 0.974678
P5    P     P_3+3 0.133262 0.213201 0.607357 0.970241
P6    P     P_3+3 0.609968 0.598812 0.273410 0.998459
P7    P     P_3+3 0.573040 0.268641 0.453269 0.981422
P8    P     P_3+3 0.585701 0.387906 0.726296 1.000792
O25   O     O_3   0.614091 0.604556 0.683873 -0.718596
H48   H     H_    0.627133 0.556788 0.643740 0.303356
O26   O     O_3   0.394708 0.482361 0.360567 -0.732853
H49   H     H_    0.360612 0.535765 0.391631 0.367266
O27   O     O_3   0.326087 0.677420 0.453529 -0.749109
H50   H     H_    0.278993 0.660908 0.498313 0.299245
O28   O     O_3   0.844625 0.319903 0.561325 -0.731501
H51   H     H_    0.905577 0.340226 0.521069 0.291645
O29   O     O_3   0.318827 0.772661 0.618999 -0.775118
H52   H     H_    0.368414 0.712099 0.623588 0.322190

loop_
_geom_bond_atom_site_label_1
_geom_bond_atom_site_label_2
_ccdc_geom_bond_type
C19   C24   A    
Ba2   O12   S    
C44   H13   S    
C32   C35   A    
C34   C40   S    
C1    H22   S    
C41   C42   S    
O5    P4    S    
C9    O26   S    
C5    H24   S    
C8    H32   S    
C26   P2    S    
C5    C6    S    
C10   P6    S    
C43   C44   S    
C25   C31   A    
C13   C17   S    
C35   C36   A    
O16   P8    D    
C16   C22   S    
C7    O17   S    
C38   H41   S    
C26   C27   A    
Ba1   Ba2   S    
C5    H25   S    
C28   C29   A    
O13   P2    S    
C41   H6    S    
Ba2   O5    S    
C13   C14   S    
C11   H35   S    
O18   P6    S    
C3    H17   S    
C32   C33   A    
Ba1   O22   S    
Ba1   P1    S    
O24   P3    D    
Ba1   O12   S    
C42   H7    S    
C4    H19   S    
Ba2   O13   S    
O7    P4    S    
C18   C22   A    
C43   H10   S    
O26   H49   S    
O19   P6    D    
O4    P4    D    
C30   C39   A    
C25   H43   S    
C7    H30   S    
C36   O28   S    
C7    C8    S    
C35   P7    S    
C27   O27   S    
C43   O25   S    
C37   P5    S    
C39   H44   S    
C44   H12   S    
C2    O21   S    
C32   C39   A    
C34   H47   S    
C14   H36   S    
C8    H31   S    
C36   C37   A    
Ba2   O14   S    
C23   H45   S    
C6    H26   S    
C21   H38   S    
C43   O2    S    
C37   C38   A    
C8    H34   S    
C14   C15   D    
Ba2   O4    S    
C25   C33   A    
C2    H15   S    
Ba2   O9    S    
C3    H18   S    
O3    P3    S    
Ba1   O23   S    
O20   P1    S    
Ba1   P2    S    
C27   C28   A    
Ba1   O13   S    
C29   C30   A    
C21   C22   A    
N3    N4    A    
C6    H28   S    
C40   H2    S    
C12   H33   S    
C10   C11   S    
O6    P8    S    
C40   H4    S    
C1    H11   S    
C4    H21   S    
C16   N4    A    
C41   O20   S    
C26   C31   A    
C11   C13   D    
C20   P8    S    
C16   N1    A    
O17   P8    S    
C23   H23   S    
O21   P6    S    
C19   P4    S    
C1    C2    S    
C17   N2    A    
O2    P2    S    
C1    H16   S    
O1    P1    D    
C9    C15   D    
C23   H46   S    
O8    P7    S    
C44   H14   S    
C20   C21   A    
O10   P5    D    
C28   P3    S    
O28   H51   S    
Ba1   O1    S    
C9    C10   S    
C12   O3    S    
O27   H50   S    
C3    O15   S    
O22   P2    D    
C7    H29   S    
O9    P5    S    
Ba2   O8    S    
C34   O7    S    
C30   C31   A    
C33   C38   A    
C12   H42   S    
C42   H9    S    
C41   H5    S    
C3    C4    S    
Ba2   O6    S    
C24   H39   S    
C6    H27   S    
O25   H48   S    
C12   C23   S    
N1    N2    A    
O12   P1    S    
O15   P7    S    
O29   H52   S    
C40   H3    S    
Ba2   P4    S    
C42   H8    S    
C15   P1    S    
C4    H20   S    
C18   C19   A    
C20   C24   A    
C18   H37   S    
O14   P7    D    
C29   H40   S    
C5    O11   S    
Ba1   O18   S    
O11   P5    S    
C34   O29   S    
Ba1   O5    S    
C17   N3    A    
O23   P3    S    
Ba1   O8    S    
C2    H1    S    
