data_mof_unit_pretest_1982.cif
_audit_creation_date              2012-12-10T17:59:50-0500
_audit_creation_method            fapswitch 2.2
_symmetry_space_group_name_H-M    P1
_symmetry_Int_Tables_number       1
_space_group_crystal_system       triclinic
_cell_length_a                    30.833232
_cell_length_b                    31.977308
_cell_length_c                    21.75525
_cell_angle_alpha                 90.105137
_cell_angle_beta                  135.147216
_cell_angle_gamma                 90.118242
_cell_volume                      15128.1425526

loop_
_atom_site_label
_atom_site_type_symbol
_atom_type_description
_atom_site_fract_x
_atom_site_fract_y
_atom_site_fract_z
_atom_type_partial_charge
C1    C     C_R   0.499961 0.999972 0.381396 0.798060
C2    C     C_3   0.000057 0.791353 0.500257 -0.019086
C3    C     C_3   0.783119 0.012661 0.167849 -0.549004
C4    C     C_R   0.717137 0.528819 0.750831 -0.036649
C5    C     C_R   0.218531 0.025139 0.757053 -0.014520
C6    C     C_R   0.684575 0.498316 0.686203 -0.108467
C7    C     C_R   0.184870 0.998312 0.685713 -0.113118
C8    C     C_R   0.716319 0.466012 0.688862 -0.296354
C9    C     C_R   0.216058 0.968257 0.681925 -0.303697
C10   C     C_3   0.517017 0.764139 0.460679 -0.297077
C11   C     C_3   0.517260 0.235793 0.460527 -0.297079
C12   C     C_3   0.024577 0.264187 0.471201 -0.295237
C13   C     C_3   0.540602 0.764465 0.584160 -0.297301
C14   C     C_3   0.014924 0.735795 0.457722 -0.297896
C15   C     C_R   0.281271 0.968181 0.744987 0.502197
C16   C     C_R   0.781031 0.465522 0.754092 0.490885
C17   C     C_R   0.314195 0.998874 0.811882 -0.238723
C18   C     C_R   0.813779 0.499571 0.813422 -0.229410
C19   C     C_R   0.281608 0.026542 0.816333 -0.035788
C20   C     C_R   0.780660 0.530693 0.811721 -0.103170
C21   C     C_3   0.283125 0.073265 0.827115 0.955250
C22   C     C_3   0.777958 0.578513 0.805746 0.951232
C23   C     C_3   0.708086 0.574871 0.740369 -0.457912
C24   C     C_3   0.541446 0.235999 0.584468 -0.297852
C25   C     C_3   0.212705 0.071105 0.762566 -0.565500
C26   C     C_1   0.499733 0.874989 0.499797 -0.186435
C27   C     C_1   0.500469 0.124993 0.500461 -0.188632
C28   C     C_1   0.999753 0.374988 0.499892 -0.185679
C29   C     C_1   0.000414 0.624988 0.500420 -0.187571
C30   C     C_1   0.500097 0.625013 0.500311 -0.138998
C31   C     C_1   0.500050 0.374970 0.499960 -0.138831
C32   C     C_1   0.000076 0.125013 0.500296 -0.140356
C33   C     C_1   0.999927 0.874966 0.499874 -0.137871
C34   C     C_3   0.442359 0.764018 0.455983 -0.297823
C35   C     C_3   0.034471 0.264420 0.583196 -0.299448
C36   C     C_3   0.443035 0.235471 0.456708 -0.296502
C37   C     C_3   0.941106 0.264008 0.446932 -0.297032
C38   C     C_3   0.943306 0.735451 0.459153 -0.297555
C39   C     C_3   0.499947 0.791441 0.500164 -0.009949
C40   C     C_3   0.500688 0.208526 0.500653 -0.008588
C41   C     C_3   0.000022 0.291440 0.500372 -0.008976
C42   C     C_3   0.000424 0.708515 0.500468 -0.009195
C43   C     C_3   0.496043 0.896078 0.800503 -0.293640
C44   C     C_3   0.998494 0.396025 0.802775 -0.307125
C45   C     C_3   0.536274 0.115702 0.843081 -0.336611
C46   C     C_3   0.042691 0.735978 0.584323 -0.295952
C47   C     C_3   0.366581 0.022664 0.666244 -0.437093
C48   C     C_3   0.924134 0.638162 0.733495 -0.261511
C49   C     C_3   0.865182 0.515860 0.661601 -0.430003
C50   C     C_3   0.682864 0.003116 0.332517 -0.331259
C51   C     C_3   0.182122 0.512788 0.329114 -0.332014
C52   C     C_3   0.682686 0.044799 0.977081 -0.279133
C53   C     C_3   0.707863 0.938122 0.088544 -0.322852
C54   C     C_3   0.185007 0.578828 0.005184 -0.214809
C55   C     C_3   0.190312 0.452434 0.047384 -0.310105
C56   C     C_3   0.389742 0.750969 0.272593 -0.271597
C57   C     C_3   0.555851 0.736719 0.543274 0.455677
C58   C     C_3   0.389708 0.247556 0.272787 -0.281906
C59   C     C_3   0.906606 0.251106 0.275817 -0.273964
C60   C     C_3   0.885265 0.747588 0.272559 -0.277501
C61   C     C_3   0.287524 0.930690 0.659743 -0.354328
C62   C     C_3   0.803582 0.395976 0.772285 -0.280131
C63   C     C_3   0.288952 0.084718 0.723566 -0.282030
C64   C     C_3   0.311055 0.126067 0.923741 -0.279595
C65   C     C_3   0.787597 0.577049 0.705559 -0.312011
C66   C     C_3   0.864241 0.602693 0.946291 -0.236868
C67   C     C_3   0.656547 0.752037 0.620838 -0.261457
C68   C     C_3   0.556202 0.263705 0.542957 0.460175
C69   C     C_3   0.656802 0.249180 0.619748 -0.292569
C70   C     C_3   0.160159 0.252015 0.646190 -0.277929
C71   C     C_3   0.154997 0.749103 0.612307 -0.277179
C72   C     C_3   0.454016 0.751924 0.608068 -0.283965
C73   C     C_3   0.455584 0.248032 0.609619 -0.258412
C74   C     C_3   0.933765 0.251765 0.580239 -0.286055
C75   C     C_3   0.960634 0.747922 0.616263 -0.280751
C76   C     C_3   0.057159 0.236721 0.552326 0.456601
C77   C     C_3   0.055402 0.763692 0.540282 0.458164
C78   C     C_1   0.499791 0.837284 0.499919 0.001526
C79   C     C_R   0.000003 0.499521 0.381476 0.796965
C80   C     C_1   0.500650 0.162692 0.500624 0.000019
C81   C     C_1   0.999845 0.337283 0.500090 0.001177
C82   C     C_1   0.000493 0.662686 0.500506 0.000412
C83   C     C_1   0.500097 0.662715 0.500445 0.101698
C84   C     C_1   0.500158 0.337264 0.500125 0.098350
C85   C     C_1   0.000085 0.162714 0.500454 0.098953
C86   C     C_1   0.999954 0.837258 0.500025 0.099411
C87   C     C_R   0.467930 0.028363 0.249223 0.123662
C88   C     C_R   0.965693 0.526592 0.247454 0.126733
C89   C     C_R   0.500192 0.999154 0.315521 -0.075786
C90   C     C_3   0.483535 0.736611 0.538733 0.460043
C91   C     C_R   0.000319 0.498609 0.315746 -0.081869
C92   C     C_R   0.534248 0.968955 0.317120 -0.222372
C93   C     C_R   0.036710 0.469847 0.319405 -0.223286
C94   C     C_R   0.533710 0.968692 0.251756 -0.215031
C95   C     C_R   0.036055 0.469828 0.253899 -0.208562
C96   C     C_R   0.499907 0.919882 0.499908 0.812966
C97   C     C_R   0.500152 0.080112 0.500153 0.817380
C98   C     C_R   0.999910 0.419882 0.499931 0.810945
C99   C     C_R   0.000146 0.580110 0.500142 0.818532
C100  C     C_R   0.501081 0.999633 0.186335 -0.093019
C101  C     C_3   0.484302 0.263376 0.539267 0.454829
C102  C     C_R   0.000799 0.499578 0.186141 -0.093687
C103  C     C_R   0.469381 0.029129 0.188691 0.121458
C104  C     C_R   0.966673 0.527642 0.186468 0.117182
C105  C     C_3   0.427890 0.065906 0.142851 -0.441651
C106  C     C_3   0.922741 0.563217 0.139607 -0.491683
C107  C     C_3   0.426992 0.065382 0.212795 -0.505475
C108  C     C_3   0.922635 0.562253 0.210216 -0.462686
C109  C     C_R   0.493630 0.036391 0.711287 -0.082551
C110  C     C_R   0.992720 0.536327 0.710148 -0.053476
C111  C     C_R   0.502012 0.999836 0.686488 -0.089674
C112  C     C_3   0.976308 0.236560 0.528825 0.459615
C113  C     C_R   0.002230 0.499787 0.686716 -0.108874
C114  C     C_R   0.521648 0.963966 0.737430 -0.313913
C115  C     C_R   0.022814 0.464208 0.738655 -0.297801
C116  C     C_R   0.522281 0.963104 0.802946 0.523567
C117  C     C_R   0.023184 0.463364 0.803857 0.517563
C118  C     C_R   0.505773 0.999576 0.819771 -0.212566
C119  C     C_R   0.005422 0.499586 0.819292 -0.228170
C120  C     C_R   0.494725 0.036053 0.775433 -0.119480
C121  C     C_R   0.992860 0.535900 0.773463 0.002139
C122  C     C_R   0.500258 0.000269 0.618729 0.836749
C123  C     C_3   0.986022 0.763350 0.541681 0.459376
C124  C     C_R   0.000297 0.500115 0.618769 0.841688
C125  C     C_3   0.449215 0.072012 0.732839 1.022071
C126  C     C_3   0.943494 0.568771 0.726812 0.966545
C127  C     C_3   0.449113 0.071765 0.661868 -0.533120
C128  C     C_3   0.944839 0.569468 0.657434 -0.578539
C129  C     C_R   0.381168 0.499936 0.381155 0.836879
C130  C     C_R   0.881028 0.999723 0.381007 0.840518
C131  C     C_R   0.500044 0.580130 0.500099 0.808943
C132  C     C_R   0.499955 0.419864 0.499911 0.807152
C133  C     C_R   0.000026 0.080130 0.500082 0.811681
C134  C     C_3   0.500051 0.708608 0.500465 -0.017978
C135  C     C_R   0.999925 0.919863 0.499886 0.808064
C136  C     C_R   0.618437 0.499634 0.618617 0.827358
C137  C     C_R   0.118556 0.000011 0.618665 0.834705
C138  C     C_R   0.618786 0.000159 0.118900 0.902753
C139  C     C_R   0.118608 0.500055 0.118484 0.880565
C140  C     C_R   0.500097 0.999986 0.119000 0.807123
C141  C     C_R   0.999802 0.499992 0.118734 0.804038
C142  C     C_R   0.380993 0.999842 0.879198 0.849198
C143  C     C_R   0.880832 0.499994 0.880100 0.831593
C144  C     C_R   0.501548 0.999890 0.882381 0.858938
C145  C     C_3   0.500325 0.291362 0.500364 -0.018155
C146  C     C_R   0.001301 0.499887 0.882087 0.867719
C147  C     C_R   0.279984 0.509771 0.229077 -0.019364
C148  C     C_R   0.780715 0.018970 0.233643 -0.009964
C149  C     C_3   0.460688 0.736301 0.419110 0.457389
C150  C     C_3   0.460871 0.263174 0.419191 0.459064
C151  C     C_3   0.966720 0.236344 0.420327 0.457936
C152  C     C_3   0.959128 0.763175 0.419030 0.457583
C153  C     C_R   0.314553 0.499484 0.315224 -0.119394
C154  C     C_R   0.814157 0.000978 0.315136 -0.139039
C155  C     C_R   0.282043 0.488695 0.336664 -0.274449
C156  C     C_3   0.000064 0.208608 0.500530 -0.018300
C157  C     C_R   0.782042 0.987268 0.335457 -0.280616
C158  C     C_R   0.717425 0.987595 0.271894 0.467902
C159  C     C_R   0.217057 0.489265 0.272552 0.484745
C160  C     C_R   0.684971 0.001158 0.187113 -0.213598
C161  C     C_R   0.184415 0.500000 0.185989 -0.203421
C162  C     C_R   0.717283 0.019268 0.171147 -0.008304
C163  C     C_R   0.217854 0.509894 0.167558 -0.062409
C164  C     C_3   0.711982 0.013032 0.097750 0.904974
C165  C     C_3   0.212574 0.523639 0.096607 0.910017
C166  C     C_3   0.284033 0.523858 0.167763 -0.516430
Cu1   Cu    Cu3+1 0.438230 0.000000 0.438170 0.949471
Cu2   Cu    Cu3+1 0.500030 0.041430 0.000020 1.020871
Cu3   Cu    Cu3+1 0.000030 0.458570 0.000020 0.989059
Cu4   Cu    Cu3+1 0.000030 0.541430 0.000020 0.984932
Cu5   Cu    Cu3+1 0.938230 0.500000 0.438170 0.948664
Cu6   Cu    Cu3+1 0.561800 0.000000 0.561830 0.950611
Cu7   Cu    Cu3+1 0.061800 0.500000 0.561830 0.957835
Cu8   Cu    Cu3+1 0.499880 0.500000 0.438060 0.968853
Cu9   Cu    Cu3+1 0.999880 0.000000 0.438060 0.963036
Cu10  Cu    Cu3+1 0.500000 0.500000 0.561790 0.979308
Cu11  Cu    Cu3+1 1.000000 0.000000 0.561790 0.979108
Cu12  Cu    Cu3+1 0.500030 0.958570 0.000020 1.024750
H1    H     H_    0.534564 0.936353 0.724615 0.149142
H2    H     H_    0.305119 0.500014 0.158452 0.184692
H3    H     H_    0.877484 0.624817 0.996644 0.160713
H4    H     H_    0.662491 0.771651 0.668672 0.155307
H5    H     H_    0.643122 0.771682 0.567458 0.151685
H6    H     H_    0.701842 0.738008 0.655557 0.192646
H7    H     H_    0.643231 0.229367 0.566252 0.158858
H8    H     H_    0.663055 0.229676 0.667813 0.157768
H9    H     H_    0.701982 0.263566 0.654133 0.181024
H10   H     H_    0.160459 0.271460 0.688921 0.154691
H11   H     H_    0.152255 0.271828 0.597067 0.158587
H12   H     H_    0.206467 0.237971 0.688007 0.189861
H13   H     H_    0.803401 0.040464 0.165108 0.202003
H14   H     H_    0.139950 0.729399 0.557740 0.154502
H15   H     H_    0.162695 0.729492 0.661470 0.157325
H16   H     H_    0.199791 0.763455 0.644757 0.187268
H17   H     H_    0.573508 0.776493 0.652098 0.147668
H18   H     H_    0.574634 0.224374 0.652497 0.144905
H19   H     H_    0.062372 0.276415 0.650237 0.144767
H20   H     H_    0.077108 0.724348 0.652363 0.147332
H21   H     H_    0.415050 0.771545 0.553051 0.153202
H22   H     H_    0.495526 0.771571 0.658122 0.153516
H23   H     H_    0.440482 0.737903 0.639090 0.186660
H24   H     H_    0.805837 0.982987 0.177641 0.176449
H25   H     H_    0.497355 0.228899 0.659750 0.153647
H26   H     H_    0.416764 0.227899 0.554985 0.157123
H27   H     H_    0.442123 0.262035 0.640764 0.191125
H28   H     H_    0.897360 0.271463 0.522726 0.156019
H29   H     H_    0.973823 0.271343 0.634417 0.151747
H30   H     H_    0.914283 0.237694 0.603009 0.185711
H31   H     H_    0.002467 0.728560 0.664803 0.156266
H32   H     H_    0.921043 0.728015 0.562228 0.152649
H33   H     H_    0.949001 0.761887 0.649786 0.186244
H34   H     H_    0.560222 0.945407 0.367619 0.154129
H35   H     H_    0.682063 0.585713 0.673318 0.168855
H36   H     H_    0.064672 0.447264 0.371666 0.156580
H37   H     H_    0.559357 0.944904 0.253159 0.180141
H38   H     H_    0.063685 0.447224 0.257026 0.182992
H39   H     H_    0.688847 0.586383 0.765286 0.202912
H40   H     H_    0.186430 0.087717 0.699961 0.178809
H41   H     H_    0.195824 0.077349 0.792961 0.200459
H42   H     H_    0.395635 0.775675 0.420045 0.147426
H43   H     H_    0.396444 0.223425 0.421199 0.148601
H44   H     H_    0.893326 0.275657 0.403545 0.147917
H45   H     H_    0.036537 0.436753 0.726707 0.147981
H46   H     H_    0.897155 0.723394 0.425736 0.147422
H47   H     H_    0.382871 0.057599 0.076715 0.240870
H48   H     H_    0.451277 0.093790 0.146603 0.204637
H49   H     H_    0.877732 0.553849 0.074357 0.210248
H50   H     H_    0.944233 0.591917 0.141886 0.197215
H51   H     H_    0.530814 0.775899 0.428569 0.147012
H52   H     H_    0.530855 0.224002 0.428155 0.144480
H53   H     H_    0.044473 0.275987 0.447516 0.146920
H54   H     H_    0.026831 0.724018 0.423181 0.144784
H55   H     H_    0.381311 0.057314 0.186615 0.213736
H56   H     H_    0.470468 0.099934 0.662250 0.177216
H57   H     H_    0.450566 0.092725 0.257753 0.193750
H58   H     H_    0.877768 0.552687 0.185287 0.210574
H59   H     H_    0.944804 0.590078 0.253915 0.190443
H60   H     H_    0.449740 0.907412 0.768076 0.154683
H61   H     H_    0.508033 0.869644 0.843166 0.188379
H62   H     H_    0.494647 0.883783 0.751297 0.140272
H63   H     H_    0.951784 0.406807 0.769540 0.164989
H64   H     H_    0.010918 0.369761 0.846017 0.186510
H65   H     H_    0.997821 0.383687 0.754307 0.145063
H66   H     H_    0.555096 0.111192 0.814986 0.144086
H67   H     H_    0.404807 0.062459 0.595770 0.191945
H68   H     H_    0.558795 0.094260 0.898825 0.212437
H69   H     H_    0.547767 0.148109 0.868959 0.195445
H70   H     H_    0.381241 0.001878 0.718915 0.179892
H71   H     H_    0.379013 0.008710 0.633731 0.169968
H72   H     H_    0.315678 0.024167 0.616706 0.194898
H73   H     H_    0.888960 0.632839 0.734365 0.205335
H74   H     H_    0.901685 0.641822 0.665314 0.138459
H75   H     H_    0.947867 0.668065 0.768130 0.168395
H76   H     H_    0.880497 0.494060 0.713435 0.189110
H77   H     H_    0.879432 0.503890 0.630253 0.171117
H78   H     H_    0.964360 0.598746 0.657454 0.185108
H79   H     H_    0.814187 0.515776 0.611074 0.206703
H80   H     H_    0.654682 0.029849 0.287814 0.160009
H81   H     H_    0.729310 0.014156 0.393643 0.166881
H82   H     H_    0.660032 0.990009 0.350863 0.195098
H83   H     H_    0.154929 0.538216 0.280099 0.166145
H84   H     H_    0.228541 0.524502 0.389097 0.166765
H85   H     H_    0.158061 0.503470 0.347738 0.196267
H86   H     H_    0.644389 0.023212 0.926288 0.207307
H87   H     H_    0.726554 0.033800 0.000487 0.153033
H88   H     H_    0.672093 0.075699 0.946035 0.165398
H89   H     H_    0.901940 0.558675 0.591450 0.192263
H90   H     H_    0.672931 0.912738 0.053764 0.224487
H91   H     H_    0.731491 0.937315 0.157527 0.155993
H92   H     H_    0.740374 0.931193 0.083236 0.165942
H93   H     H_    0.147807 0.562789 0.941651 0.202544
H94   H     H_    0.229890 0.575094 0.026368 0.139360
H95   H     H_    0.174192 0.612688 0.995047 0.174408
H96   H     H_    0.159804 0.444215 0.055826 0.192911
H97   H     H_    0.238641 0.443857 0.106208 0.147591
H98   H     H_    0.175426 0.433320 0.992480 0.223676
H99   H     H_    0.690927 0.441885 0.639074 0.159361
H100  H     H_    0.306554 0.479778 0.402544 0.181548
H101  H     H_    0.189478 0.945337 0.629816 0.158792
H102  H     H_    0.422969 0.770690 0.279977 0.155696
H103  H     H_    0.361796 0.770557 0.276125 0.156408
H104  H     H_    0.357815 0.736655 0.206642 0.187219
H105  H     H_    0.362204 0.227674 0.276892 0.156515
H106  H     H_    0.422991 0.228196 0.279957 0.153315
H107  H     H_    0.357392 0.261438 0.206690 0.185835
H108  H     H_    0.943065 0.270824 0.291175 0.154621
H109  H     H_    0.874682 0.270691 0.271309 0.156178
H110  H     H_    0.879514 0.236835 0.210721 0.186972
H111  H     H_    0.806673 0.974789 0.399323 0.182748
H112  H     H_    0.858887 0.727742 0.278777 0.156791
H113  H     H_    0.917548 0.728191 0.277558 0.154786
H114  H     H_    0.851784 0.761486 0.206468 0.187334
H115  H     H_    0.323525 0.917934 0.665103 0.180167
H116  H     H_    0.269482 0.959534 0.619519 0.143936
H117  H     H_    0.250829 0.906576 0.626852 0.185139
H118  H     H_    0.814527 0.397224 0.833297 0.160347
H119  H     H_    0.835513 0.373258 0.782954 0.178184
H120  H     H_    0.756084 0.384010 0.717233 0.162198
H121  H     H_    0.289571 0.112186 0.693148 0.215330
H122  H     H_    0.304880 0.555571 0.185105 0.193929
H123  H     H_    0.242324 0.070713 0.673778 0.130122
H124  H     H_    0.323315 0.062335 0.740209 0.211143
H125  H     H_    0.343980 0.143122 0.926775 0.206028
H126  H     H_    0.325613 0.131358 0.986638 0.166014
H127  H     H_    0.264037 0.139183 0.871378 0.161091
H128  H     H_    0.787795 0.599456 0.666931 0.208021
H129  H     H_    0.743031 0.560079 0.658971 0.147409
H130  H     H_    0.826028 0.555138 0.736643 0.223396
H131  H     H_    0.882920 0.615743 0.921544 0.204496
H132  H     H_    0.885424 0.572221 0.978358 0.169707
O1    O     O_R   0.447840 0.000000 0.357610 -0.582446
O2    O     O_R   0.090140 0.000000 0.642300 -0.573106
O3    O     O_R   0.590180 0.965000 0.090240 -0.558596
O4    O     O_R   0.590180 0.035000 0.090240 -0.599990
O5    O     O_R   0.090180 0.465000 0.090240 -0.580700
O6    O     O_R   0.090180 0.535000 0.090240 -0.573248
O7    O     O_R   0.500040 0.965010 0.090190 -0.587612
O8    O     O_R   0.500040 0.034990 0.090190 -0.591338
O9    O     O_R   0.000040 0.465010 0.090190 -0.584159
O10   O     O_R   0.000040 0.534990 0.090190 -0.612396
O11   O     O_R   0.409890 0.965030 0.909800 -0.550761
O12   O     O_R   0.947840 0.500000 0.357610 -0.584478
O13   O     O_R   0.409890 0.034970 0.909800 -0.558036
O14   O     O_R   0.909890 0.465030 0.909800 -0.554307
O15   O     O_R   0.909890 0.534970 0.909800 -0.608292
O16   O     O_R   0.500040 0.965020 0.909850 -0.548669
O17   O     O_R   0.500040 0.034980 0.909850 -0.576374
O18   O     O_R   0.000040 0.465020 0.909850 -0.557661
O19   O     O_R   0.000040 0.534980 0.909850 -0.548665
O20   O     O_R   0.552190 0.000000 0.462050 -0.587156
O21   O     O_R   0.052190 0.500000 0.462050 -0.586609
O22   O     O_R   0.447840 0.939540 0.447780 -0.580442
O23   O     O_R   0.500000 0.560470 0.552180 -0.574566
O24   O     O_R   0.447840 0.060460 0.447780 -0.581265
O25   O     O_R   0.947840 0.439540 0.447780 -0.580640
O26   O     O_R   0.947840 0.560460 0.447780 -0.582265
O27   O     O_R   0.552190 0.939560 0.552210 -0.582244
O28   O     O_R   0.552190 0.060440 0.552210 -0.581368
O29   O     O_R   0.052190 0.439560 0.552210 -0.582587
O30   O     O_R   0.052190 0.560440 0.552210 -0.579224
O31   O     O_R   0.447840 0.000000 0.537950 -0.591184
O32   O     O_R   0.947840 0.500000 0.537950 -0.592160
O33   O     O_R   0.552190 0.000000 0.642390 -0.585154
O34   O     O_R   0.500000 0.439530 0.552180 -0.574612
O35   O     O_R   0.052190 0.500000 0.642390 -0.580070
O36   O     O_R   0.409740 0.500000 0.357550 -0.580785
O37   O     O_R   0.909740 0.000000 0.357550 -0.582154
O38   O     O_R   0.409840 0.500000 0.462040 -0.594008
O39   O     O_R   0.909840 0.000000 0.462040 -0.592122
O40   O     O_R   0.499890 0.560480 0.447700 -0.577233
O41   O     O_R   0.499890 0.439520 0.447700 -0.578488
O42   O     O_R   0.999890 0.060480 0.447700 -0.575810
O43   O     O_R   0.999890 0.939520 0.447700 -0.581181
O44   O     O_3   0.541379 0.927493 0.852584 -0.543698
O45   O     O_R   0.000000 0.060470 0.552180 -0.575892
O46   O     O_3   0.042954 0.427979 0.854303 -0.565872
O47   O     O_3   0.471576 0.110777 0.779671 -0.561450
O48   O     O_3   0.390072 0.063551 0.699400 -0.569583
O49   O     O_3   0.968045 0.605769 0.777999 -0.582816
O50   O     O_3   0.885941 0.556928 0.696035 -0.616936
O51   O     O_3   0.686418 0.971554 0.290928 -0.575277
O52   O     O_3   0.185934 0.477634 0.293967 -0.579186
O53   O     O_3   0.686975 0.049504 0.045785 -0.597223
O54   O     O_3   0.677490 0.976317 0.046935 -0.589093
O55   O     O_3   0.186875 0.564235 0.068235 -0.585618
O56   O     O_R   0.000000 0.939530 0.552180 -0.573826
O57   O     O_3   0.183947 0.495140 0.025555 -0.604951
O58   O     O_3   0.419808 0.718692 0.334694 -0.560624
O59   O     O_3   0.419606 0.280236 0.334602 -0.559726
O60   O     O_3   0.932051 0.218788 0.337011 -0.558993
O61   O     O_3   0.916339 0.780255 0.334440 -0.562276
O62   O     O_3   0.314221 0.938642 0.744604 -0.559313
O63   O     O_3   0.812219 0.435173 0.752487 -0.579583
O64   O     O_3   0.306049 0.098272 0.800403 -0.585817
O65   O     O_3   0.312809 0.082700 0.913276 -0.609750
O66   O     O_3   0.797101 0.599683 0.770193 -0.593433
O67   O     O_R   0.590030 0.500000 0.537810 -0.590681
O68   O     O_3   0.799724 0.598862 0.881413 -0.600745
O69   O     O_3   0.613872 0.719489 0.587907 -0.559031
O70   O     O_3   0.614057 0.281391 0.587052 -0.565835
O71   O     O_3   0.116475 0.219480 0.606184 -0.564669
O72   O     O_3   0.112735 0.781345 0.581788 -0.561937
O73   O     O_3   0.466393 0.719370 0.578668 -0.556736
O74   O     O_3   0.467379 0.280598 0.579522 -0.561191
O75   O     O_3   0.951594 0.219257 0.558288 -0.558218
O76   O     O_3   0.971193 0.780525 0.584655 -0.556616
O77   O     O_R   0.090030 0.000000 0.537810 -0.595071
O78   O     O_R   0.590140 0.500000 0.642300 -0.575837

loop_
_geom_bond_atom_site_label_1
_geom_bond_atom_site_label_2
_ccdc_geom_bond_type
C157  C158  A    
C56   H102  S    
Cu11  O2    S    
C122  O31   A    
C61   O62   S    
Cu9   Cu11  S    
C84   C145  S    
Cu5   Cu7   S    
C45   O47   S    
C143  O14   A    
C70   O71   S    
C163  C165  S    
C155  H100  S    
C117  C119  A    
C123  O76   S    
C32   C133  S    
C49   H77   S    
C165  O57   S    
C30   C131  S    
C152  O61   S    
C73   H26   S    
C47   H72   S    
C65   H129  S    
C109  C127  S    
C62   O63   S    
C62   H118  S    
C159  C161  A    
C117  O46   S    
Cu2   O17   S    
C71   H14   S    
C164  O54   S    
C14   H54   S    
C38   C123  S    
C95   C102  A    
C107  H55   S    
C8    C16   A    
C16   O63   S    
C25   H40   S    
C59   O60   S    
C161  C163  A    
C34   C149  S    
C162  C164  S    
C2    C152  S    
C51   H84   S    
C136  O67   A    
C29   C99   S    
C74   O75   S    
C7    C137  S    
C4    C23   S    
C120  C125  S    
C71   H16   S    
C2    C123  S    
C59   H109  S    
C150  O59   S    
C77   O72   S    
C17   C142  S    
C48   H74   S    
C67   H4    S    
C97   O24   A    
C33   C135  S    
C11   C150  S    
C43   O44   S    
C99   O26   A    
C68   O70   S    
C92   C94   A    
Cu7   O29   S    
C144  O17   A    
C43   H61   S    
C3    C164  S    
C5    C25   S    
C96   O22   A    
C87   C89   A    
Cu2   O4    S    
C69   H7    S    
C70   H12   S    
C23   H35   S    
C27   C97   S    
C93   H36   S    
C45   H68   S    
C46   C77   S    
C126  O50   S    
C90   O73   S    
Cu8   O40   S    
C148  C162  A    
C9    C15   A    
C29   C82   T    
C124  O32   A    
C36   C150  S    
C113  C124  S    
C50   H82   S    
C90   C134  S    
C128  H89   S    
C116  C118  A    
C158  O51   S    
C147  C153  A    
C118  C120  A    
C46   H20   S    
Cu1   O31   S    
C4    C20   A    
Cu4   O10   S    
C60   H113  S    
C87   C107  S    
C108  H59   S    
C61   H116  S    
C125  C127  S    
C3    H24   S    
C22   C23   S    
Cu4   O19   S    
C135  O43   A    
C48   H75   S    
Cu12  O3    S    
C109  C120  A    
C110  C128  S    
C113  C115  A    
C136  O78   A    
C23   H39   S    
C75   H32   S    
C21   O64   S    
C132  O34   A    
C8    H99   S    
Cu12  O16   S    
C44   H64   S    
C119  C146  S    
C105  C107  S    
C101  C145  S    
C55   H98   S    
C26   C78   T    
Cu5   O12   S    
C24   C40   S    
C18   C143  S    
C19   C21   S    
C99   O30   A    
C109  C111  A    
C10   C149  S    
C42   C46   S    
C130  O37   A    
C13   C57   S    
C24   C101  S    
Cu11  O39   S    
C49   H79   S    
C116  O44   S    
C54   H94   S    
C105  H47   S    
C111  C114  A    
C69   H9    S    
C79   C91   S    
C145  C150  S    
C70   H10   S    
C52   H87   S    
C93   C95   A    
C111  C122  S    
C95   H38   S    
C51   O52   S    
C88   C104  A    
Cu6   O28   S    
C74   H29   S    
C119  C121  A    
C26   C96   S    
C35   C76   S    
C155  C159  A    
C34   C39   S    
C39   C78   S    
C130  C154  S    
C27   C80   T    
Cu3   O9    S    
C15   O62   S    
C60   O61   S    
C50   H80   S    
C134  C149  S    
C51   H85   S    
C31   C84   T    
C133  O45   A    
C36   C101  S    
Cu2   O13   S    
C160  C162  A    
C142  O13   A    
C138  C160  S    
Cu6   O33   S    
Cu7   O35   S    
C88   C91   A    
C94   C100  A    
C103  C105  S    
C64   O65   S    
C67   H5    S    
C139  O5    A    
C102  C141  S    
C92   H34   S    
C166  H2    S    
Cu1   O24   S    
C101  O74   S    
C144  O16   A    
C11   C68   S    
C35   H19   S    
C12   H53   S    
C125  O48   S    
C73   H27   S    
Cu10  O78   S    
C55   H96   S    
C126  C128  S    
Cu5   O26   S    
C106  H49   S    
C9    H101  S    
Cu10  O23   S    
C58   O59   S    
C114  C116  A    
C166  H122  S    
Cu11  O45   S    
C132  O41   A    
C63   H121  S    
C137  O2    A    
C147  C163  A    
C72   H21   S    
C129  C153  S    
C49   H76   S    
C106  C108  S    
C98   O25   A    
C143  O15   A    
C128  H78   S    
C146  O19   A    
C37   C41   S    
C11   C40   S    
C35   C41   S    
C47   H71   S    
C65   H128  S    
C133  O42   A    
C63   H124  S    
C53   H92   S    
C112  C156  S    
C14   C152  S    
C62   H119  S    
C36   H43   S    
C35   C112  S    
C54   O55   S    
C60   H112  S    
C108  H58   S    
Cu8   O36   S    
C13   C90   S    
Cu9   O43   S    
C135  O56   A    
C104  C106  S    
C66   H132  S    
C140  O7    A    
C51   H83   S    
C75   H33   S    
C94   H37   S    
C141  O10   A    
C115  H45   S    
C142  O11   A    
C137  O77   A    
Cu12  O11   S    
C34   H42   S    
C71   H15   S    
C64   H126  S    
C58   H105  S    
C24   H18   S    
C56   H104  S    
Cu10  O38   S    
C14   C77   S    
C38   H46   S    
C30   C83   T    
Cu12  O7    S    
C83   C134  S    
C21   C25   S    
C138  O4    A    
C66   H131  S    
Cu11  O56   S    
C115  C117  A    
C67   O69   S    
C129  O36   A    
C153  C155  A    
C158  C160  A    
C53   O54   S    
C148  C154  A    
C47   H70   S    
C52   H86   S    
C139  C161  S    
C154  C157  A    
C4    C6    A    
C5    C7    A    
C6    C8    A    
C56   O58   S    
C100  C103  A    
Cu1   O1    S    
Cu8   O41   S    
C10   C39   S    
C85   C156  S    
Cu9   O42   S    
Cu10  O34   S    
Cu8   O67   S    
C12   C41   S    
C65   H130  S    
C91   C93   A    
C73   H25   S    
C98   O29   A    
C41   C81   S    
C151  C156  S    
C164  O53   S    
C22   O66   S    
C64   H127  S    
C45   H66   S    
C1    O20   A    
C60   H114  S    
C66   H3    S    
C20   C22   S    
Cu3   O14   S    
C61   H115  S    
C12   C76   S    
C146  O18   A    
C106  H50   S    
C46   C123  S    
C25   H41   S    
C97   O28   A    
C138  O3    A    
C28   C98   S    
C15   C17   A    
C75   H31   S    
C50   O51   S    
C66   O68   S    
Cu1   Cu6   S    
C5    C19   A    
C112  O75   S    
C59   H110  S    
C55   H97   S    
C48   H73   S    
C110  C121  A    
C2    C77   S    
C32   C85   T    
C76   C156  S    
C22   O68   S    
C129  O38   A    
C79   O21   A    
Cu8   Cu10  S    
Cu7   O30   S    
C43   H62   S    
C24   C68   S    
C88   C108  S    
C114  H1    S    
C13   H17   S    
C63   O64   S    
C56   H103  S    
C96   O27   A    
Cu5   O32   S    
Cu9   O37   S    
C69   H8    S    
C130  O39   A    
C68   C145  S    
C70   H11   S    
C52   H88   S    
C165  C166  S    
C76   O71   S    
C57   O69   S    
Cu3   Cu4   S    
C42   C82   S    
Cu7   O21   S    
C45   H69   S    
C126  O49   S    
C74   H30   S    
C151  O60   S    
C37   H44   S    
C38   C42   S    
C131  O40   A    
C118  C144  S    
Cu3   O18   S    
C50   H81   S    
C37   C112  S    
C6    C136  S    
C100  C140  S    
C55   O57   S    
Cu9   O77   S    
C61   H117  S    
C40   C80   S    
C127  H67   S    
C73   O74   S    
C14   C42   S    
C1    O1    A    
C3    C148  S    
C21   O65   S    
C44   O46   S    
C12   C151  S    
C79   O12   A    
C37   C151  S    
C38   C152  S    
C65   O66   S    
C44   H63   S    
C125  O47   S    
C59   H108  S    
Cu5   O25   S    
C157  H111  S    
C36   C40   S    
C10   C57   S    
Cu2   O8    S    
C122  O33   A    
C124  O35   A    
C43   H60   S    
C10   H51   S    
C33   C86   T    
C34   C90   S    
C31   C132  S    
C147  C166  S    
C3    H13   S    
C72   H22   S    
C165  O55   S    
C49   O50   S    
C54   H93   S    
C105  H48   S    
C89   C92   A    
C102  C104  A    
C110  C113  A    
C63   H123  S    
C11   H52   S    
C53   H91   S    
C62   H120  S    
C87   C103  A    
Cu3   O5    S    
Cu6   O27   S    
C74   H28   S    
Cu4   O6    S    
C7    C9    A    
C107  H57   S    
C127  H56   S    
C1    C89   S    
C28   C81   T    
Cu4   O15   S    
C52   O53   S    
C71   O72   S    
C53   H90   S    
C140  O8    A    
C141  O9    A    
C75   O76   S    
C121  C126  S    
C47   O48   S    
Cu1   O22   S    
Cu6   O20   S    
C58   H106  S    
C54   H95   S    
Cu2   Cu12  S    
C17   C19   A    
C2    C86   S    
C18   C20   A    
C57   C134  S    
C159  O52   S    
C13   C39   S    
C67   H6    S    
C72   O73   S    
C139  O6    A    
C131  O23   A    
C149  O58   S    
C16   C18   A    
C69   O70   S    
C48   O49   S    
C44   H65   S    
C72   H23   S    
C64   H125  S    
C58   H107  S    
