data_mof_unit_pretest_866.cif
_audit_creation_date              2012-12-10T17:46:33-0500
_audit_creation_method            fapswitch 2.2
_symmetry_space_group_name_H-M    P1
_symmetry_Int_Tables_number       1
_space_group_crystal_system       monoclinic
_cell_length_a                    20.680489
_cell_length_b                    21.278497
_cell_length_c                    14.759195
_cell_angle_alpha                 90.0
_cell_angle_beta                  127.906826
_cell_angle_gamma                 90.0
_cell_volume                      5124.45192729

loop_
_atom_site_label
_atom_site_type_symbol
_atom_type_description
_atom_site_fract_x
_atom_site_fract_y
_atom_site_fract_z
_atom_type_partial_charge
C1    C     C_R   0.602768 0.913626 0.631082 0.875705
C2    C     C_R   0.397232 0.086374 0.368918 0.875705
C3    C     C_R   0.397232 0.913626 0.368918 0.875705
C4    C     C_R   0.602768 0.086374 0.631082 0.875704
C5    C     C_R   0.102768 0.413626 0.631082 0.875705
C6    C     C_R   0.897232 0.586374 0.368918 0.875705
C7    C     C_R   0.897232 0.413626 0.368918 0.875705
C8    C     C_R   0.102768 0.586374 0.631082 0.875704
C9    C     C_R   0.345446 0.760822 0.947410 -0.071474
C10   C     C_R   0.654554 0.239178 0.052590 -0.071474
C11   C     C_R   0.654553 0.760821 0.052589 -0.071474
C12   C     C_R   0.345447 0.239179 0.947411 -0.071474
C13   C     C_R   0.845447 0.260822 0.947410 -0.071474
C14   C     C_R   0.154553 0.739178 0.052590 -0.071474
C15   C     C_R   0.154553 0.260821 0.052589 -0.071474
C16   C     C_R   0.845446 0.739178 0.947410 -0.071474
C17   C     C_R   0.321479 1.000000 0.665629 -0.196566
C18   C     C_R   0.678521 0.000000 0.334371 -0.196566
C19   C     C_R   0.821479 0.500000 0.665629 -0.196566
C20   C     C_R   0.178521 0.500000 0.334371 -0.196566
C21   C     C_R   0.351441 1.000000 0.603066 0.158415
C22   C     C_R   0.648558 0.000000 0.396934 0.158415
C23   C     C_R   0.851441 0.500000 0.603066 0.158415
C24   C     C_R   0.148558 0.500000 0.396934 0.158415
C25   C     C_R   0.488217 0.000000 0.775256 0.050174
C26   C     C_R   0.511782 1.000000 0.224744 0.050174
C27   C     C_R   0.988217 0.500000 0.775256 0.050175
C28   C     C_R   0.011782 0.500000 0.224744 0.050174
C29   C     C_R   0.461659 1.000000 0.844712 -0.061208
C30   C     C_R   0.538341 0.000000 0.155288 -0.061208
C31   C     C_R   0.961659 0.500000 0.844712 -0.061208
C32   C     C_R   0.038341 0.500000 0.155288 -0.061208
C33   C     C_R   0.375962 1.000000 0.786283 0.004110
C34   C     C_R   0.624038 0.000000 0.213717 0.004111
C35   C     C_R   0.875962 0.500000 0.786283 0.004110
C36   C     C_R   0.124038 0.500000 0.213717 0.004111
C37   C     C_R   0.516243 0.000000 0.968653 -0.014294
C38   C     C_R   0.483757 1.000000 0.031347 -0.014294
C39   C     C_R   0.016243 0.500000 0.968653 -0.014294
C40   C     C_R   0.983757 0.500000 0.031347 -0.014294
C41   C     C_R   0.397855 1.000000 0.967988 -0.285924
C42   C     C_R   0.602144 0.000000 0.032012 -0.285923
C43   C     C_R   0.897855 0.500000 0.967988 -0.285924
C44   C     C_R   0.102144 0.500000 0.032012 -0.285923
C45   C     C_R   0.345274 1.000000 0.848459 0.629784
C46   C     C_R   0.654726 0.000000 0.151541 0.629784
C47   C     C_R   0.845274 0.500000 0.848459 0.629784
C48   C     C_R   0.154726 0.500000 0.151541 0.629784
C49   C     C_R   0.663631 0.134545 0.707079 -0.314744
C50   C     C_R   0.336369 0.865454 0.292921 -0.314744
C51   C     C_R   0.336368 0.134545 0.292921 -0.314744
C52   C     C_R   0.663631 0.865454 0.707078 -0.314744
C53   C     C_R   0.163631 0.634546 0.707078 -0.314744
C54   C     C_R   0.836369 0.365454 0.292922 -0.314744
C55   C     C_R   0.836368 0.634545 0.292921 -0.314744
C56   C     C_R   0.163631 0.365455 0.707079 -0.314744
C57   C     C_R   0.795375 0.184270 0.796259 0.570135
C58   C     C_R   0.204625 0.815730 0.203741 0.570135
C59   C     C_R   0.204625 0.184270 0.203740 0.570134
C60   C     C_R   0.795375 0.815730 0.796259 0.570135
C61   C     C_R   0.295375 0.684270 0.796258 0.570136
C62   C     C_R   0.704625 0.315730 0.203741 0.570134
C63   C     C_R   0.704625 0.684270 0.203741 0.570133
C64   C     C_R   0.295375 0.315730 0.796259 0.570135
C65   C     C_R   0.736184 0.140880 0.719000 0.557141
C66   C     C_R   0.263816 0.859120 0.281000 0.557141
C67   C     C_R   0.263816 0.140879 0.281000 0.557141
C68   C     C_R   0.736184 0.859120 0.719000 0.557141
C69   C     C_R   0.236184 0.640880 0.719000 0.557140
C70   C     C_R   0.763816 0.359120 0.281000 0.557142
C71   C     C_R   0.763816 0.640880 0.281000 0.557142
C72   C     C_R   0.236184 0.359120 0.719000 0.557140
C73   C     C_R   0.651087 0.172497 0.772979 -0.176003
C74   C     C_R   0.348913 0.827503 0.227021 -0.176003
C75   C     C_R   0.348913 0.172497 0.227021 -0.176003
C76   C     C_R   0.651087 0.827503 0.772978 -0.176003
C77   C     C_R   0.151087 0.672497 0.772978 -0.176003
C78   C     C_R   0.848913 0.327503 0.227022 -0.176003
C79   C     C_R   0.848912 0.672497 0.227021 -0.176003
C80   C     C_R   0.151087 0.327503 0.772978 -0.176003
C81   C     C_R   0.717925 0.205669 0.868181 -0.028776
C82   C     C_R   0.282075 0.794331 0.131819 -0.028777
C83   C     C_R   0.282075 0.205669 0.131819 -0.028776
C84   C     C_R   0.717925 0.794330 0.868180 -0.028777
C85   C     C_R   0.217925 0.705669 0.868180 -0.028776
C86   C     C_R   0.782075 0.294331 0.131820 -0.028777
C87   C     C_R   0.782074 0.705669 0.131819 -0.028777
C88   C     C_R   0.217925 0.294331 0.868181 -0.028776
C89   C     C_R   0.787075 0.216467 0.871527 -0.092327
C90   C     C_R   0.212925 0.783533 0.128473 -0.092328
C91   C     C_R   0.212925 0.216467 0.128473 -0.092327
C92   C     C_R   0.787075 0.783532 0.871526 -0.092327
C93   C     C_R   0.287075 0.716467 0.871526 -0.092327
C94   C     C_R   0.712925 0.283533 0.128474 -0.092326
C95   C     C_R   0.712925 0.716467 0.128473 -0.092327
C96   C     C_R   0.287075 0.283533 0.871527 -0.092327
C97   C     C_R   0.718407 0.229110 0.959065 0.129692
C98   C     C_R   0.281593 0.770890 0.040935 0.129692
C99   C     C_R   0.281593 0.229110 0.040935 0.129692
C100  C     C_R   0.718407 0.770889 0.959064 0.129692
C101  C     C_R   0.218407 0.729110 0.959065 0.129692
C102  C     C_R   0.781593 0.270890 0.040935 0.129692
C103  C     C_R   0.781593 0.729110 0.040935 0.129692
C104  C     C_R   0.218407 0.270890 0.959065 0.129692
C105  C     C_R   0.339640 0.790460 0.025762 -0.190306
C106  C     C_R   0.660360 0.209540 0.974237 -0.190306
C107  C     C_R   0.660359 0.790459 0.974236 -0.190306
C108  C     C_R   0.339640 0.209541 0.025763 -0.190306
C109  C     C_R   0.839640 0.290459 0.025763 -0.190306
C110  C     C_R   0.160360 0.709540 0.974237 -0.190305
C111  C     C_R   0.160360 0.290459 0.974237 -0.190306
C112  C     C_R   0.839640 0.709540 0.025762 -0.190306
Cu1   Cu    Cu3+1 0.526640 0.000000 0.436960 1.018532
Cu2   Cu    Cu3+1 0.473360 0.000000 0.563040 1.018532
Cu3   Cu    Cu3+1 0.026640 0.500000 0.436960 1.018531
Cu4   Cu    Cu3+1 0.973360 0.500000 0.563040 1.018532
H1    H     H_    0.394783 0.773987 0.944524 0.201220
H2    H     H_    0.605217 0.226013 0.055476 0.201221
H3    H     H_    0.605216 0.773987 0.055475 0.201221
H4    H     H_    0.394784 0.226013 0.944525 0.201221
H5    H     H_    0.894783 0.273987 0.944524 0.201221
H6    H     H_    0.105217 0.726013 0.055476 0.201221
H7    H     H_    0.105216 0.273987 0.055475 0.201221
H8    H     H_    0.894783 0.726013 0.944524 0.201221
H9    H     H_    0.368909 1.000000 0.008623 0.165059
H10   H     H_    0.631091 0.000000 0.991376 0.165059
H11   H     H_    0.868909 0.500000 0.008623 0.165059
H12   H     H_    0.131091 0.500000 0.991376 0.165059
H13   H     H_    0.381333 0.828927 0.073569 0.152796
H14   H     H_    0.618667 0.171073 0.926430 0.152796
H15   H     H_    0.618666 0.828926 0.926429 0.152797
H16   H     H_    0.381334 0.171073 0.073570 0.152796
H17   H     H_    0.881334 0.328927 0.073570 0.152796
H18   H     H_    0.118666 0.671073 0.926430 0.152796
H19   H     H_    0.118666 0.328927 0.926430 0.152796
H20   H     H_    0.881333 0.671073 0.073569 0.152797
H21   H     H_    0.447891 1.000000 0.187658 0.128095
H22   H     H_    0.552109 0.000000 0.812342 0.128095
H23   H     H_    0.947891 0.500000 0.187658 0.128095
H24   H     H_    0.052109 0.500000 0.812342 0.128095
H25   H     H_    0.690842 0.000000 0.489778 0.211771
H26   H     H_    0.309158 1.000000 0.510222 0.211772
H27   H     H_    0.190842 0.500000 0.489778 0.211772
H28   H     H_    0.809158 0.500000 0.510222 0.211772
H29   H     H_    0.255751 1.000000 0.619366 0.223505
H30   H     H_    0.744249 0.000000 0.380634 0.223505
H31   H     H_    0.755751 0.500000 0.619366 0.223505
H32   H     H_    0.244249 0.500000 0.380634 0.223505
N1    N     N_R   0.433280 0.000000 0.657760 -0.200573
N2    N     N_R   0.566720 0.000000 0.342240 -0.200573
N3    N     N_R   0.933280 0.500000 0.657760 -0.200573
N4    N     N_R   0.066720 0.500000 0.342240 -0.200573
O1    O     O_R   0.600040 0.935040 0.546740 -0.528673
O2    O     O_R   0.399960 0.064960 0.453260 -0.528673
O3    O     O_R   0.399960 0.935040 0.453260 -0.528673
O4    O     O_R   0.600040 0.064960 0.546740 -0.528673
O5    O     O_R   0.100040 0.435040 0.546740 -0.528673
O6    O     O_R   0.899960 0.564960 0.453260 -0.528673
O7    O     O_R   0.899960 0.435040 0.453260 -0.528673
O8    O     O_R   0.100040 0.564960 0.546740 -0.528673
O9    O     O_R   0.555010 0.935070 0.653220 -0.602703
O10   O     O_R   0.444990 0.064930 0.346780 -0.602703
O11   O     O_R   0.444990 0.935070 0.346780 -0.602703
O12   O     O_R   0.555010 0.064930 0.653220 -0.602703
O13   O     O_R   0.055010 0.435070 0.653220 -0.602703
O14   O     O_R   0.944990 0.564930 0.346780 -0.602703
O15   O     O_R   0.944990 0.435070 0.346780 -0.602703
O16   O     O_R   0.055010 0.564930 0.653220 -0.602703
C113  C     C_1   0.432551 0.813415 0.271892 0.321228
N5    N     N_1   0.499278 0.802179 0.308159 -0.206833
C114  C     C_1   0.567449 0.186585 0.728108 0.321228
N6    N     N_1   0.500722 0.197821 0.691841 -0.206833
C115  C     C_1   0.567449 0.813415 0.728107 0.321228
N7    N     N_1   0.500722 0.802178 0.691840 -0.206833
C116  C     C_1   0.432551 0.186585 0.271893 0.321227
N8    N     N_1   0.499278 0.197822 0.308160 -0.206833
C117  C     C_1   0.932551 0.313415 0.271893 0.321228
N9    N     N_1   0.999278 0.302179 0.308159 -0.206833
C118  C     C_1   0.067449 0.686585 0.728107 0.321228
N10   N     N_1   0.000722 0.697821 0.691840 -0.206832
C119  C     C_1   0.067449 0.313415 0.728107 0.321228
N11   N     N_1   0.000722 0.302178 0.691840 -0.206833
C120  C     C_1   0.932550 0.686585 0.271892 0.321228
N12   N     N_1   0.999278 0.697821 0.308159 -0.206833
F1    F     F_    0.250494 0.894089 0.345075 -0.594857
F2    F     F_    0.749506 0.105911 0.654925 -0.594857
F3    F     F_    0.749506 0.894089 0.654925 -0.594857
F4    F     F_    0.250494 0.105911 0.345075 -0.594857
F5    F     F_    0.750494 0.394089 0.345075 -0.594857
F6    F     F_    0.249506 0.605911 0.654925 -0.594857
F7    F     F_    0.249506 0.394089 0.654925 -0.594857
F8    F     F_    0.750494 0.605911 0.345075 -0.594857
F9    F     F_    0.362663 0.692554 0.801275 -0.597369
F10   F     F_    0.637337 0.307446 0.198725 -0.597369
F11   F     F_    0.637337 0.692554 0.198724 -0.597369
F12   F     F_    0.362663 0.307447 0.801276 -0.597369
F13   F     F_    0.862663 0.192554 0.801275 -0.597369
F14   F     F_    0.137337 0.807446 0.198725 -0.597369
F15   F     F_    0.137336 0.192553 0.198724 -0.597369
F16   F     F_    0.862663 0.807446 0.801275 -0.597369
F17   F     F_    0.263163 1.000000 0.793114 -0.638587
F18   F     F_    0.736837 0.000000 0.206886 -0.638587
F19   F     F_    0.763163 0.500000 0.793114 -0.638587
F20   F     F_    0.236837 0.500000 0.206886 -0.638587

loop_
_geom_bond_atom_site_label_1
_geom_bond_atom_site_label_2
_ccdc_geom_bond_type
C114  N6    T    
C22   N2    A    
C14   H6    S    
C29   C33   A    
C78   C117  S    
C33   C45   A    
C113  N5    T    
C5    C56   S    
C53   C77   A    
C6    C55   S    
C26   H21   S    
C11   H3    S    
C76   C84   A    
C88   C96   A    
C119  N11   T    
C99   C108  A    
C30   C38   A    
C77   C118  S    
C98   C105  A    
C57   C89   A    
Cu3   O5    S    
C32   C36   A    
Cu1   O1    S    
C76   C115  S    
C51   C75   A    
C21   H26   S    
C50   C74   A    
C61   C93   A    
C7    O7    A    
C10   C94   A    
C24   H27   S    
C9    C105  A    
Cu3   Cu4   S    
C63   C95   A    
C13   H5    S    
C62   C70   A    
C25   N1    A    
C42   C46   A    
C7    O15   A    
C37   C42   A    
C14   C90   A    
C74   C113  S    
C13   C109  A    
C8    O16   A    
C59   C67   A    
Cu1   O10   S    
C12   H4    S    
C85   C93   A    
C58   C66   A    
C40   C43   A    
C58   F14   S    
C20   C24   A    
C68   F3    S    
C59   F15   S    
C6    O14   A    
C56   C72   A    
C87   C95   A    
Cu3   N4    S    
C4    O12   A    
C34   C46   A    
C5    O13   A    
C71   F8    S    
C73   C114  S    
C24   N4    A    
C72   F7    S    
C97   C102  A    
C52   C68   A    
C3    O11   A    
C81   C89   A    
C78   C86   A    
C64   C72   A    
C99   C104  A    
C1    O9    A    
C2    O2    A    
C83   C99   A    
C79   C87   A    
C82   C98   A    
C2    O10   A    
C15   H7    S    
C28   H23   S    
C17   C33   A    
C112  H20   S    
C73   C81   A    
C88   C104  A    
C3    C50   S    
C60   C92   A    
C25   C29   A    
C30   C34   A    
C27   C31   A    
C84   C100  A    
C41   H9    S    
C26   N2    A    
C64   C96   A    
Cu4   O7    S    
C107  H15   S    
C43   H11   S    
C39   C40   A    
C12   C108  A    
C31   C35   A    
C42   H10   S    
Cu2   O9    S    
C105  H13   S    
C18   H30   S    
C53   C69   A    
C115  N7    T    
C75   C116  S    
C100  C103  A    
C19   H31   S    
C103  C112  A    
C8    C53   S    
C19   C23   A    
C120  N12   T    
Cu4   O6    S    
C37   C38   A    
C10   H2    S    
C15   C111  A    
Cu1   O11   S    
C55   C79   A    
C15   C91   A    
Cu2   O12   S    
C116  N8    T    
C54   C70   A    
C28   C32   A    
C3    O3    A    
C86   C94   A    
C47   F19   S    
C59   C91   A    
C80   C119  S    
Cu3   O14   S    
C1    O1    A    
C18   C34   A    
C23   H28   S    
C49   C65   A    
C38   C41   A    
C87   C103  A    
C97   C106  A    
C4    O4    A    
C63   C71   A    
C28   N4    A    
C21   N1    A    
C62   C94   A    
C11   C107  A    
C17   H29   S    
C63   F11   S    
Cu4   O13   S    
C110  H18   S    
C62   F10   S    
Cu1   O4    S    
Cu3   O15   S    
C86   C102  A    
C9    C93   A    
Cu2   O3    S    
C85   C101  A    
C67   F4    S    
C16   C112  A    
Cu1   Cu2   S    
C74   C82   A    
C11   C95   A    
C106  H14   S    
C23   N3    A    
C65   F2    S    
C44   H12   S    
C100  C107  A    
C27   N3    A    
C13   C89   A    
C18   C22   A    
Cu1   N2    S    
C12   C96   A    
Cu2   N1    S    
C57   C65   A    
C52   C76   A    
C82   C90   A    
C69   F6    S    
C6    O6    A    
C104  C111  A    
C50   C66   A    
C16   C92   A    
C39   C44   A    
C98   C101  A    
C83   C91   A    
C48   F20   S    
C5    O5    A    
C27   H24   S    
C56   C80   A    
Cu3   O8    S    
C58   C90   A    
C61   C69   A    
C25   H22   S    
C101  C110  A    
C4    C49   S    
C80   C88   A    
C19   C35   A    
C61   F9    S    
C75   C83   A    
C20   H32   S    
C51   C67   A    
C81   C97   A    
C77   C85   A    
C14   C110  A    
C64   F12   S    
C22   H25   S    
C79   C120  S    
C36   C48   A    
C49   C73   A    
C32   C40   A    
C109  H17   S    
C16   H8    S    
C111  H19   S    
C1    C52   S    
C17   C21   A    
C108  H16   S    
C10   C106  A    
C2    C51   S    
C60   F16   S    
C57   F13   S    
C118  N10   T    
C20   C36   A    
C46   F18   S    
C60   C68   A    
C45   F17   S    
C117  N9    T    
C66   F1    S    
C29   C37   A    
C31   C39   A    
C41   C45   A    
Cu4   O16   S    
C102  C109  A    
C84   C92   A    
C7    C54   S    
C35   C47   A    
C43   C47   A    
Cu2   O2    S    
Cu4   N3    S    
C55   C71   A    
C9    H1    S    
C44   C48   A    
C70   F5    S    
C54   C78   A    
C26   C30   A    
C8    O8    A    
