data_mof_unit_pretest_397.cif
_audit_creation_date              2013-03-05T15:45:12-0500
_audit_creation_method            fapswitch 2.2
_symmetry_space_group_name_H-M    P1
_symmetry_Int_Tables_number       1
_space_group_crystal_system       triclinic
_cell_length_a                    11.570411
_cell_length_b                    11.52967
_cell_length_c                    19.544368
_cell_angle_alpha                 90.517799
_cell_angle_beta                  90.148173
_cell_angle_gamma                 59.709831
_cell_volume                      2251.23985604

loop_
_atom_site_label
_atom_site_type_symbol
_atom_site_description
_atom_site_fract_x
_atom_site_fract_y
_atom_site_fract_z
_atom_type_partial_charge
O1    O     O_R   0.267740 0.231990 0.575440 -0.496831
O2    O     O_R   0.527280 0.186680 0.570530 -0.505210
C1    C     C_R   0.640521 0.117670 0.599200 0.537423
O3    O     O_R   0.728090 0.003480 0.576380 -0.500697
O4    O     O_R   0.682970 0.789220 0.570490 -0.498796
C2    C     C_R   0.612597 0.745967 0.598585 0.542759
O5    O     O_R   0.499290 0.771920 0.575530 -0.500040
O6    O     O_R   0.285330 0.030900 0.569730 -0.498838
C3    C     C_R   0.240919 0.145529 0.598159 0.548231
O7    O     O_R   0.270980 0.227040 0.423900 -0.414131
O8    O     O_R   0.530280 0.182090 0.430050 -0.435068
C4    C     C_R   0.649617 0.119269 0.406902 0.636332
O9    O     O_R   0.731330 0.998530 0.424830 -0.426559
O10   O     O_R   0.685970 0.784630 0.430010 -0.449897
C5    C     C_R   0.616043 0.741529 0.402016 0.596442
O11   O     O_R   0.502530 0.766960 0.423990 -0.473583
O12   O     O_R   0.288330 0.026310 0.429250 -0.481283
C6    C     C_R   0.237557 0.142509 0.403628 0.636442
Cr1   Cr    Cr6+3 0.404720 0.198220 0.499960 1.175843
Cr2   Cr    Cr6+3 0.698290 0.897110 0.500380 1.160710
Cr3   Cr    Cr6+3 0.396970 0.904720 0.499610 1.131130
O13   O     O_3   0.499990 0.000020 0.499980 -0.287714
C7    C     C_1   0.669962 0.646665 0.860117 0.009265
C8    C     C_1   0.654900 0.683645 0.728408 -0.026069
C9    C     C_1   0.663203 0.666792 0.799672 -0.027566
C10   C     C_1   0.641544 0.703805 0.667953 0.015483
C11   C     C_1   0.126653 0.198545 0.859272 0.007621
C12   C     C_1   0.171379 0.170528 0.727658 -0.025351
C13   C     C_1   0.150058 0.182197 0.798900 -0.027120
C14   C     C_1   0.195172 0.161323 0.667331 0.016187
C15   C     C_1   0.678407 0.191396 0.860772 0.007033
C16   C     C_1   0.658442 0.167602 0.728988 -0.025306
C17   C     C_1   0.665507 0.181152 0.800307 -0.027609
C18   C     C_1   0.652949 0.150075 0.668577 0.016334
C19   C     C_R   0.687304 0.575283 0.311547 -0.114947
H1    H     H_    0.706078 0.498675 0.348817 0.157367
C20   C     C_R   0.705385 0.542928 0.242975 -0.095360
H2    H     H_    0.740721 0.440496 0.226854 0.086821
C21   C     C_R   0.675636 0.643344 0.195083 0.022814
C22   C     C_R   0.637828 0.772749 0.213816 -0.099071
H3    H     H_    0.617118 0.846976 0.174778 0.158052
C23   C     C_R   0.620731 0.807526 0.282355 0.210886
C24   C     C_R   0.643334 0.707178 0.331318 0.045571
C25   C     C_R   0.096151 0.300692 0.315686 0.179866
C26   C     C_R   0.079412 0.326067 0.245526 -0.041964
C27   C     C_R   0.119632 0.217169 0.198528 -0.034105
C28   C     C_R   0.180831 0.086163 0.222028 -0.152255
H4    H     H_    0.211253 0.003860 0.185874 0.162989
C29   C     C_R   0.202931 0.059732 0.291192 -0.050861
C30   C     C_R   0.168659 0.166963 0.338010 0.026467
C31   C     C_R   0.808587 0.097568 0.316366 0.153858
C32   C     C_R   0.822857 0.110282 0.246424 -0.077094
C33   C     C_R   0.715909 0.214781 0.208324 -0.079766
C34   C     C_R   0.595896 0.305923 0.242882 0.175608
C35   C     C_R   0.580562 0.287683 0.312458 0.171581
C36   C     C_R   0.682469 0.174969 0.347113 -0.012929
O14   O     O_R   0.821500 0.119550 0.952820 -0.496707
O15   O     O_R   0.037130 0.162750 0.957360 -0.492663
C37   C     C_R   0.081795 0.231096 0.928584 0.551259
O16   O     O_R   0.056440 0.344950 0.951330 -0.493756
O17   O     O_R   0.797900 0.560570 0.957460 -0.492921
C38   C     C_R   0.683700 0.604562 0.929487 0.541381
O18   O     O_R   0.596140 0.579600 0.952720 -0.503264
O19   O     O_R   0.639070 0.321380 0.958660 -0.486150
C39   C     C_R   0.708173 0.206716 0.930143 0.557187
O20   O     O_R   0.821240 0.124490 0.104360 -0.492489
O21   O     O_R   0.036900 0.167320 0.097830 -0.515533
C40   C     C_R   0.076966 0.240945 0.127297 0.537768
O22   O     O_R   0.056190 0.349890 0.102870 -0.488682
O23   O     O_R   0.797670 0.565150 0.097930 -0.501835
C41   C     C_R   0.684020 0.609426 0.125349 0.532713
O24   O     O_R   0.595880 0.584540 0.104260 -0.476091
O25   O     O_R   0.638830 0.325960 0.099140 -0.432486
C42   C     C_R   0.737373 0.233502 0.135215 0.541293
Cr4   Cr    Cr6+3 0.926180 0.152240 0.028110 1.059960
Cr5   Cr    Cr6+3 0.921340 0.452070 0.027460 1.068904
Cr6   Cr    Cr6+3 0.626260 0.447120 0.028700 1.104709
O26   O     O_3   0.824590 0.350480 0.028090 -0.303058
C43   C     C_1   0.945245 0.006662 0.214612 0.318641
N1    N     N_1   0.041471 0.921702 0.189201 -0.219409
N2    N     N_R   0.485784 0.413325 0.207357 0.123309
O27   O     O_R   0.410697 0.386685 0.168299 -0.260131
O28   O     O_R   0.443750 0.537303 0.225212 -0.277004
N3    N     N_R   0.459552 0.382505 0.347134 0.123211
O29   O     O_R   0.465354 0.443829 0.402122 -0.314718
O30   O     O_R   0.343554 0.409103 0.323520 -0.196752
N4    N     N_R   0.574609 0.945221 0.300029 0.057566
O31   O     O_R   0.587407 0.022978 0.256621 -0.357918
O32   O     O_R   0.498112 0.999956 0.352729 -0.349175
N5    N     N_R   0.038614 0.409557 0.364966 0.072542
O33   O     O_R   0.056221 0.512027 0.359616 -0.229423
O34   O     O_R   0.975501 0.401705 0.418140 -0.349129
C44   C     C_1   0.022441 0.463995 0.223493 0.336073
N6    N     N_1   0.978729 0.574175 0.206382 -0.184876
C45   C     C_1   0.258804 0.921403 0.311370 0.302883
N7    N     N_1   0.302029 0.810340 0.326620 -0.121481
N8    N     N_R   0.921862 0.003636 0.356214 0.079203
O35   O     O_R   0.953817 0.044414 0.411591 -0.334657
O36   O     O_R   0.984193 0.875917 0.341414 -0.241388

loop_
_geom_bond_atom_site_label_1
_geom_bond_atom_site_label_2
_geom_bond_distance
_ccdc_geom_bond_type
C31   N8    1.440592 S    
C35   C36   1.415602 A    
C44   N6    1.157623 T    
C11   C13   1.203020 T    
O25   C42   1.310286 A    
C45   N7    1.157067 T    
N4    O31   1.301438 A    
C26   C44   1.449939 S    
N2    O27   1.301294 A    
C28   C29   1.382953 A    
O4    Cr2   1.926366 S    
Cr6   O26   1.981966 S    
C25   C26   1.397166 A    
O8    Cr1   1.935249 S    
C38   O18   1.270537 A    
Cr5   O26   1.987019 S    
C12   C13   1.408034 S    
C19   C20   1.375771 A    
C8    C10   1.200722 T    
O4    C2    1.276744 A    
C5    O11   1.267905 A    
O20   C42   1.282194 A    
O22   Cr5   2.039558 S    
C31   C36   1.402887 A    
O19   Cr6   1.935456 S    
O24   Cr6   2.052645 S    
N8    O36   1.301652 A    
C27   C28   1.387722 A    
C7    C38   1.425484 S    
C33   C42   1.487076 S    
C40   O22   1.252657 A    
C15   C17   1.202951 T    
O23   C41   1.264311 A    
C32   C43   1.450402 S    
C19   C24   1.389477 A    
C22   C23   1.380560 A    
C37   O16   1.268280 A    
Cr3   O13   1.987259 S    
N2    O28   1.300820 A    
O15   Cr4   1.934899 S    
N8    O35   1.301234 A    
O17   Cr5   1.922244 S    
O1    Cr1   2.054022 S    
C31   C32   1.395197 A    
O10   Cr2   1.935702 S    
Cr1   O13   1.973856 S    
O1    C3    1.268065 A    
C8    C9    1.404385 S    
C21   C22   1.372601 A    
O6    C3    1.273825 A    
C1    C18   1.429288 S    
O15   C37   1.274615 A    
O5    Cr3   2.037418 S    
O16   Cr5   2.052812 S    
C29   C45   1.444682 S    
O21   C40   1.286045 A    
C19   H1    1.084070 S    
C16   C18   1.202977 T    
C27   C40   1.457329 S    
C20   H2    1.080767 S    
N5    O34   1.301467 A    
C28   H4    1.084384 S    
O7    Cr1   2.047705 S    
O12   C6    1.267845 A    
N3    O29   1.301230 A    
C4    C36   1.478000 S    
C3    C14   1.429336 S    
C22   H3    1.084406 S    
Cr2   O13   1.981435 S    
N4    O32   1.293072 A    
O23   Cr5   1.933928 S    
O21   Cr4   1.933785 S    
C23   C24   1.426957 A    
C1    O3    1.266864 A    
C25   N5    1.443914 S    
C32   C33   1.429988 A    
C6    C30   1.460885 S    
O18   Cr6   2.039867 S    
C25   C30   1.406036 A    
C15   C39   1.429224 S    
C34   C35   1.403166 A    
O25   Cr6   1.922673 S    
O9    Cr2   2.044222 S    
O2    Cr1   1.932307 S    
O14   C39   1.265507 A    
O6    Cr3   1.934066 S    
O8    C4    1.274482 A    
O11   Cr3   2.051543 S    
C33   C34   1.417294 A    
C2    O5    1.270823 A    
C16   C17   1.407972 S    
O14   Cr4   2.053194 S    
C12   C14   1.202998 T    
O2    C1    1.271382 A    
C5    C24   1.425485 S    
C41   O24   1.258210 A    
C20   C21   1.396763 A    
C11   C37   1.429431 S    
O19   C39   1.272944 A    
N5    O33   1.301299 A    
C2    C10   1.425435 S    
O7    C6    1.276262 A    
O20   Cr4   2.051190 S    
C7    C9    1.200737 T    
O17   C38   1.275660 A    
Cr4   O26   1.973743 S    
O12   Cr3   1.919549 S    
C43   N1    1.157455 T    
O3    Cr2   2.054334 S    
C26   C27   1.424324 A    
C4    O9    1.278265 A    
C29   C30   1.417717 A    
C21   C41   1.404505 S    
O10   C5    1.264639 A    
N3    O30   1.300984 A    
C23   N4    1.435589 S    
C35   N3    1.436064 S    
C34   N2    1.434630 S    
