data_mof_unit_pretest_1476.cif
_audit_creation_date              2012-12-11T17:29:47-0500
_audit_creation_method            fapswitch 2.2
_symmetry_space_group_name_H-M    P1
_symmetry_Int_Tables_number       1
_space_group_crystal_system       triclinic
_cell_length_a                    19.205729
_cell_length_b                    19.193472
_cell_length_c                    20.360044
_cell_angle_alpha                 107.04545
_cell_angle_beta                  106.231788
_cell_angle_gamma                 112.099306
_cell_volume                      5970.08204266

loop_
_atom_site_label
_atom_site_type_symbol
_atom_type_description
_atom_site_fract_x
_atom_site_fract_y
_atom_site_fract_z
_atom_type_partial_charge
C1    C     C_R   0.087331 0.087518 0.354761 -0.091205
C2    C     C_R   0.758093 0.994132 0.543608 0.036675
C3    C     C_R   0.758252 0.773288 0.270101 -0.015655
C4    C     C_R   0.970041 0.221884 0.469106 0.184478
C5    C     C_R   0.225215 0.232059 0.642191 -0.115766
C6    C     C_R   0.922362 0.757747 0.495919 -0.065867
C7    C     C_R   0.175581 0.931159 0.481424 0.543149
C8    C     C_R   0.022845 0.051624 0.719750 0.517433
C9    C     C_R   0.952125 0.912321 0.655503 0.470654
C10   C     C_R   0.244573 0.072074 0.544936 0.540533
C11   C     C_R   0.150238 0.225128 0.707180 -0.008072
C12   C     C_R   0.762072 0.926151 0.503691 -0.128243
C13   C     C_R   0.996633 0.764132 0.429719 -0.104316
C14   C     C_R   0.222458 0.278405 0.706574 0.086147
C15   C     C_R   0.947443 0.713370 0.451779 0.078282
C16   C     C_R   0.253345 0.001513 0.534308 -0.338552
C17   C     C_R   0.004900 0.978089 0.728545 -0.201548
C18   C     C_R   0.012277 0.647401 0.506388 -0.336985
C19   C     C_R   0.945358 0.637851 0.448555 -0.057451
C20   C     C_R   0.884193 0.559832 0.386492 0.514165
C21   C     C_R   0.887269 0.488083 0.386155 -0.100227
C22   C     C_R   0.954614 0.497562 0.445846 0.012549
C23   C     C_R   0.840151 0.805772 0.279959 -0.271992
C24   C     C_R   0.018250 0.578005 0.505098 0.160046
C25   C     C_R   0.825762 0.407815 0.327348 -0.311337
C26   C     C_R   0.829585 0.336836 0.327656 0.541315
C27   C     C_R   0.891614 0.345319 0.391695 -0.244586
C28   C     C_R   0.957746 0.426872 0.447683 -0.020903
C29   C     C_R   0.026793 0.438062 0.506723 0.197831
C30   C     C_R   0.091284 0.518135 0.563057 -0.201175
C31   C     C_R   0.086513 0.588108 0.562766 -0.202404
C32   C     C_R   0.890280 0.275670 0.402693 0.514644
C33   C     C_R   0.962374 0.289149 0.458744 -0.062833
C34   C     C_R   0.952848 0.197754 0.522886 -0.171891
C35   C     C_R   0.030212 0.368835 0.509161 -0.371304
C36   C     C_R   0.381651 0.005078 0.604516 -0.275073
C37   C     C_R   0.329488 0.003156 0.540166 0.194599
C38   C     C_R   0.346317 0.998657 0.477630 -0.159013
C39   C     C_R   0.415000 0.992177 0.476518 -0.052031
C40   C     C_R   0.469639 0.995101 0.541798 -0.082941
C41   C     C_R   0.453630 0.002570 0.606665 -0.018433
C42   C     C_R   0.429755 0.982533 0.411392 0.624174
C43   C     C_R   0.498288 0.973964 0.410947 -0.381169
C44   C     C_R   0.554373 0.980589 0.476375 0.088487
C45   C     C_R   0.761126 0.799418 0.342931 0.655940
C46   C     C_R   0.540441 0.991143 0.542209 0.041534
C47   C     C_R   0.598061 0.998794 0.608591 0.090227
C48   C     C_R   0.582503 0.006717 0.672744 -0.387797
C49   C     C_R   0.509233 0.006376 0.671489 0.622445
C50   C     C_R   0.625681 0.978968 0.477691 -0.223246
C51   C     C_R   0.683641 0.990504 0.544352 0.113103
C52   C     C_R   0.670866 0.999494 0.609552 -0.229133
C53   C     C_R   0.277965 0.370251 0.754735 -0.104837
C54   C     C_R   0.255067 0.420558 0.800122 0.352292
C55   C     C_R   0.317220 0.501788 0.857896 0.328256
C56   C     C_R   0.028934 0.202290 0.456584 -0.142341
C57   C     C_R   0.398994 0.535362 0.864294 -0.079797
C58   C     C_R   0.417463 0.491423 0.810019 0.569463
C59   C     C_R   0.357937 0.407982 0.757638 -0.447033
C60   C     C_R   0.608379 0.701607 0.070017 -0.230671
C61   C     C_R   0.677468 0.749656 0.140931 -0.275069
C62   C     C_R   0.546412 0.621511 0.052550 0.053781
C63   C     C_R   0.684585 0.719858 0.196084 -0.050436
C64   C     C_R   0.621943 0.640809 0.180630 0.431687
C65   C     C_R   0.554414 0.589942 0.106697 0.392858
C66   C     C_R   0.107202 0.030507 0.236109 -0.202075
C67   C     C_R   0.830026 0.065878 0.565626 -0.167875
C68   C     C_R   0.123113 0.967168 0.199010 0.480136
C69   C     C_R   0.154738 0.973746 0.145736 -0.317483
C70   C     C_R   0.171528 0.042661 0.129152 0.144831
C71   C     C_R   0.165293 0.109310 0.172149 -0.365544
C72   C     C_R   0.133169 0.104403 0.225635 0.586572
C73   C     C_R   0.161538 0.024964 0.919298 -0.458095
C74   C     C_R   0.128855 0.028800 0.850794 0.643948
C75   C     C_R   0.112468 0.960354 0.933091 0.050499
C76   C     C_R   0.044197 0.970774 0.797770 -0.058340
C77   C     C_R   0.998351 0.903128 0.809718 -0.384432
C78   C     C_R   0.015942 0.948350 0.289034 -0.118807
C79   C     C_R   0.033371 0.895676 0.875509 0.586876
C80   C     C_R   0.066073 0.021901 0.287409 0.152050
H1    H     H_    0.137318 0.151613 0.379454 0.127257
H2    H     H_    0.875915 0.731129 0.514411 0.139350
H3    H     H_    0.121420 0.243317 0.742175 0.190362
H4    H     H_    0.017113 0.744448 0.386994 0.149137
H5    H     H_    0.060281 0.709583 0.552067 0.154015
H6    H     H_    0.774624 0.399438 0.280313 0.182546
H7    H     H_    0.719063 0.861514 0.486669 0.160165
H8    H     H_    0.084235 0.376663 0.552948 0.149591
H9    H     H_    0.144233 0.526403 0.608248 0.120596
H10   H     H_    0.135770 0.649941 0.607713 0.123341
H11   H     H_    0.365664 0.008526 0.651963 0.165203
H12   H     H_    0.303979 0.998157 0.429231 0.146531
H13   H     H_    0.508540 0.964091 0.360044 0.155137
H14   H     H_    0.638064 0.972007 0.427926 0.131676
H15   H     H_    0.860932 0.795774 0.235655 0.157671
H16   H     H_    0.717259 0.007072 0.660135 0.138579
H17   H     H_    0.626885 0.012908 0.723740 0.164706
H18   H     H_    0.725396 0.810847 0.153239 0.175170
H19   H     H_    0.604620 0.726322 0.028490 0.175190
H20   H     H_    0.377028 0.371338 0.723223 0.179092
H21   H     H_    0.916478 0.210980 0.551264 0.108449
H22   H     H_    0.224011 0.073839 0.962567 0.191094
H23   H     H_    0.175776 0.160781 0.157110 0.160251
H24   H     H_    0.933889 0.857646 0.770270 0.210051
H25   H     H_    0.158886 0.921245 0.112301 0.163572
H26   H     H_    0.060197 0.218263 0.422152 0.119179
H27   H     H_    0.849007 0.129450 0.603236 0.111796
H28   H     H_    0.995006 0.884679 0.250582 0.160424
H29   H     H_    0.262833 0.258563 0.615882 0.152618
N1    N     N_R   0.052570 0.055840 0.395080 -0.054183
N2    N     N_R   0.954640 0.834860 0.500130 -0.063820
N3    N     N_R   0.122510 0.958410 0.460270 -0.125035
N4    N     N_R   0.990190 0.031260 0.644790 -0.134898
N5    N     N_R   0.947430 0.944160 0.604920 -0.142105
N6    N     N_R   0.165270 0.045500 0.500140 -0.125619
N7    N     N_R   0.109810 0.150880 0.644800 -0.064843
N8    N     N_R   0.002890 0.838790 0.460260 -0.051217
N9    N     N_2   0.465949 0.599055 0.935254 -0.026058
N10   N     N_2   0.478003 0.567088 0.979431 -0.037290
N11   N     N_2   0.173715 0.038457 0.059226 -0.060803
N12   N     N_R   0.834730 0.954500 0.499860 -0.046807
N13   N     N_2   0.132927 0.965044 0.007086 -0.031949
N14   N     N_R   0.890190 0.849120 0.355200 -0.067658
N15   N     N_R   0.997110 0.161210 0.539740 -0.044417
N16   N     N_R   0.841940 0.845190 0.395070 -0.107326
N17   N     N_R   0.045360 0.165140 0.499870 -0.048191
N18   N     N_R   0.877490 0.041590 0.539730 -0.039498
N19   N     N_R   0.009810 0.968740 0.355210 -0.050876
N20   N     N_R   0.158060 0.154810 0.604930 -0.056924
Ni1   Ni    Ni4+2 0.104370 0.104380 0.500010 0.205863
Ni2   Ni    Ni4+2 0.895630 0.895620 0.499990 0.203761
Ni3   Ni    Ni4+2 0.006290 0.904630 0.408560 0.200384
Ni4   Ni    Ni4+2 0.993710 0.095370 0.591440 0.190285
O1    O     O_3   0.159893 0.851073 0.439801 -0.632304
C81   C     C_3   0.194866 0.821472 0.488375 -0.269409
H30   H     H_    0.194588 0.844679 0.545299 0.124714
H31   H     H_    0.259015 0.837251 0.495028 0.167828
H32   H     H_    0.156800 0.751855 0.460712 0.165002
O2    O     O_3   0.062529 0.132545 0.777141 -0.637416
C82   C     C_3   0.013997 0.139520 0.817126 0.226441
H33   H     H_    0.054430 0.199634 0.870490 0.141385
H34   H     H_    0.994133 0.088845 0.835337 0.091002
C83   C     C_3   0.937801 0.142032 0.769966 -0.385440
H35   H     H_    0.958872 0.192245 0.751650 0.207334
H36   H     H_    0.894345 0.080845 0.718121 0.189373
C84   C     C_3   0.890385 0.158716 0.815873 -0.979241
H37   H     H_    0.867415 0.108201 0.833499 0.266252
H38   H     H_    0.835749 0.159879 0.780017 0.271248
H39   H     H_    0.931608 0.220399 0.867525 0.268535
O3    O     O_3   0.903375 0.829501 0.639092 -0.672921
C85   C     C_3   0.817338 0.802567 0.599676 0.156371
H40   H     H_    0.781825 0.733960 0.581561 0.139110
H41   H     H_    0.803517 0.810194 0.546242 0.102963
C86   C     C_3   0.785906 0.846609 0.650696 -0.334222
H42   H     H_    0.807438 0.845697 0.706825 0.212577
H43   H     H_    0.811579 0.913219 0.660749 0.181723
C87   C     C_3   0.690526 0.803388 0.614282 -0.984046
H44   H     H_    0.665834 0.801412 0.557231 0.263435
H45   H     H_    0.670554 0.838691 0.651347 0.267882
H46   H     H_    0.663383 0.738158 0.608014 0.264352
O4    O     O_3   0.307670 0.154618 0.575712 -0.630363
C88   C     C_3   0.369584 0.178953 0.647900 -0.220416
H47   H     H_    0.420632 0.168304 0.641303 0.170535
H48   H     H_    0.344350 0.147639 0.680836 0.120260
H49   H     H_    0.398020 0.247552 0.682583 0.157396
O5    O     O_3   0.819787 0.554141 0.329377 -0.653147
C89   C     C_3   0.842398 0.558754 0.269736 0.146424
H50   H     H_    0.835001 0.497579 0.234484 0.096067
H51   H     H_    0.908230 0.608953 0.291731 0.082076
C90   C     C_3   0.784743 0.578311 0.219326 -0.187088
H52   H     H_    0.719297 0.526142 0.193083 0.208126
H53   H     H_    0.788697 0.636808 0.255560 0.234375
C91   C     C_3   0.808582 0.590130 0.156351 -1.060648
H54   H     H_    0.873206 0.643699 0.181686 0.271349
H55   H     H_    0.764826 0.603865 0.120985 0.280937
H56   H     H_    0.804602 0.532049 0.118975 0.274043
O6    O     O_3   0.770109 0.259515 0.265895 -0.666993
C92   C     C_3   0.805661 0.234866 0.217528 0.271658
H57   H     H_    0.770325 0.165061 0.186710 0.140627
H58   H     H_    0.872353 0.253299 0.249412 0.087904
C93   C     C_3   0.797076 0.269380 0.158453 -0.381764
H59   H     H_    0.730441 0.250663 0.127354 0.221255
H60   H     H_    0.834794 0.339151 0.187897 0.192825
C94   C     C_3   0.827162 0.236152 0.100968 -0.962243
H61   H     H_    0.894069 0.255182 0.130832 0.267418
H62   H     H_    0.820547 0.262537 0.059283 0.271672
H63   H     H_    0.789196 0.166473 0.069237 0.267591
O7    O     O_3   0.822158 0.194607 0.358611 -0.656034
C95   C     C_3   0.752795 0.188439 0.373944 0.272185
H64   H     H_    0.695906 0.131142 0.325453 0.133195
H65   H     H_    0.741895 0.241952 0.376741 0.111616
C96   C     C_3   0.761027 0.179946 0.447824 -0.403755
H66   H     H_    0.770024 0.125400 0.444927 0.225730
H67   H     H_    0.815602 0.238360 0.497154 0.199934
C97   C     C_3   0.683427 0.167587 0.460386 -0.990251
H68   H     H_    0.675325 0.223143 0.466639 0.265805
H69   H     H_    0.690323 0.159820 0.513375 0.283597
H70   H     H_    0.626982 0.110755 0.411267 0.262310
O8    O     O_3   0.373883 0.975017 0.346114 -0.639641
C98   C     C_3   0.405730 0.053113 0.343966 -0.323152
H71   H     H_    0.415810 0.103944 0.395715 0.150144
H72   H     H_    0.359092 0.048126 0.293479 0.172253
H73   H     H_    0.464735 0.069993 0.337518 0.157831
O9    O     O_3   0.495169 0.015904 0.735722 -0.614590
C99   C     C_3   0.461163 0.936841 0.735866 -0.285539
H74   H     H_    0.401500 0.889751 0.683409 0.125636
H75   H     H_    0.446833 0.943631 0.785762 0.179227
H76   H     H_    0.506625 0.913696 0.741929 0.146042
O10   O     O_3   0.499078 0.524381 0.819169 -0.591382
C100  C     C_3   0.501880 0.538838 0.755690 -0.222911
H77   H     H_    0.475142 0.579735 0.747340 0.120511
H78   H     H_    0.469342 0.478765 0.702664 0.130636
H79   H     H_    0.568293 0.572166 0.766550 0.174111
O11   O     O_3   0.633248 0.611711 0.235570 -0.626452
C101  C     C_3   0.562672 0.584936 0.250719 -0.020054
H80   H     H_    0.521998 0.515661 0.217645 0.149980
H81   H     H_    0.525490 0.616407 0.239233 0.096228
H82   H     H_    0.584718 0.599958 0.312222 0.149201
O12   O     O_3   0.300331 0.548126 0.911133 -0.645290
C102  C     C_3   0.288773 0.512267 0.961635 0.282357
H83   H     H_    0.321188 0.475074 0.966865 0.110228
H84   H     H_    0.220752 0.470088 0.940917 0.134494
C103  C     C_3   0.322968 0.582823 0.041141 -0.291173
H85   H     H_    0.390061 0.627551 0.060778 0.210923
H86   H     H_    0.288080 0.617603 0.038241 0.205112
C104  C     C_3   0.315023 0.548535 0.099095 -1.025499
H87   H     H_    0.248312 0.504419 0.081267 0.267454
H88   H     H_    0.340177 0.601352 0.155983 0.268550
H89   H     H_    0.351234 0.515298 0.104284 0.294761
O13   O     O_3   0.494161 0.509795 0.087387 -0.631100
C105  C     C_3   0.519591 0.452766 0.057390 -0.214549
H90   H     H_    0.578208 0.465054 0.101222 0.146093
H91   H     H_    0.527550 0.454389 0.005651 0.147428
H92   H     H_    0.470187 0.388243 0.039994 0.169588
O14   O     O_3   0.174953 0.388620 0.794316 -0.676221
C106  C     C_3   0.128159 0.407317 0.742325 0.193586
H93   H     H_    0.127499 0.381143 0.685330 0.083976
H94   H     H_    0.154859 0.476681 0.764835 0.126855
C107  C     C_3   0.038065 0.367297 0.732313 -0.261103
H95   H     H_    0.009364 0.297742 0.705027 0.179932
H96   H     H_    0.038000 0.387716 0.789338 0.211854
C108  C     C_3   0.985441 0.391961 0.682923 -1.034509
H97   H     H_    0.012230 0.461247 0.709607 0.274836
H98   H     H_    0.920643 0.361739 0.677068 0.272866
H99   H     H_    0.982846 0.370576 0.625076 0.274938
O15   O     O_3   0.178734 0.093016 0.839001 -0.578093
C109  C     C_3   0.216153 0.062707 0.796045 -0.221984
H100  H     H_    0.168378 0.009223 0.739064 0.115529
H101  H     H_    0.257428 0.043960 0.827757 0.127785
H102  H     H_    0.255663 0.113977 0.785921 0.172263
O16   O     O_3   0.113500 0.164505 0.257883 -0.606195
C110  C     C_3   0.185743 0.245103 0.299193 -0.296605
H103  H     H_    0.199695 0.272296 0.260159 0.156424
H104  H     H_    0.241201 0.244460 0.334756 0.124403
H105  H     H_    0.173343 0.287238 0.338793 0.172033
O17   O     O_3   0.984956 0.833182 0.890048 -0.600690
C111  C     C_3   0.972485 0.755644 0.841383 -0.218645
H106  H     H_    0.033109 0.758289 0.847849 0.124850
H107  H     H_    0.932271 0.735402 0.780599 0.142790
H108  H     H_    0.939642 0.707024 0.857555 0.175607
O18   O     O_3   0.095335 0.892602 0.204872 -0.673953
C112  C     C_3   0.164208 0.887510 0.246054 0.194157
H109  H     H_    0.201251 0.940497 0.304806 0.114618
H110  H     H_    0.205140 0.888769 0.216458 0.130717
C113  C     C_3   0.131017 0.804493 0.251553 -0.275797
H111  H     H_    0.093364 0.804143 0.284298 0.217683
H112  H     H_    0.089519 0.751601 0.193056 0.200135
C114  C     C_3   0.201685 0.790753 0.290343 -0.880204
H113  H     H_    0.239455 0.789829 0.257892 0.261975
H114  H     H_    0.174871 0.729596 0.292487 0.249245
H115  H     H_    0.242827 0.841252 0.349665 0.291297
O19   O     O_3   0.694002 0.777659 0.360519 -0.634001
C115  C     C_3   0.642440 0.807162 0.328632 -0.328219
H116  H     H_    0.602260 0.766158 0.266588 0.153549
H117  H     H_    0.679226 0.873524 0.339338 0.141797
H118  H     H_    0.599820 0.805354 0.356121 0.175120

loop_
_geom_bond_atom_site_label_1
_geom_bond_atom_site_label_2
_ccdc_geom_bond_type
C83   C84   S    
C66   C68   A    
C87   H44   S    
C6    H2    S    
C83   H36   S    
C43   H13   S    
N14   Ni3   S    
C45   O19   S    
C75   N13   S    
C73   C74   A    
C3    C23   A    
C19   C20   A    
C82   C83   S    
C43   C44   A    
C60   H19   S    
C78   N19   A    
C109  H102  S    
C112  C113  S    
C102  H84   S    
C92   H57   S    
C53   C59   A    
C103  C104  S    
C81   H30   S    
C89   H51   S    
C99   H74   S    
C94   H61   S    
C40   C46   A    
C48   H17   S    
C13   H4    S    
C26   C27   A    
C88   H47   S    
C74   C76   A    
C65   O13   S    
C23   H15   S    
C8    O2    S    
C18   C24   A    
C9    N5    A    
C78   H28   S    
C28   C29   A    
C107  H95   S    
C82   H34   S    
C18   C19   A    
N15   N17   A    
C10   N6    A    
C69   C70   A    
C101  H81   S    
C38   C39   A    
C74   O15   S    
C11   C14   A    
C78   C80   A    
C13   N8    A    
C26   O6    S    
C90   H52   S    
N17   Ni1   S    
C1    H1    S    
C83   H35   S    
C84   H39   S    
C38   H12   S    
C115  H118  S    
C7    N3    A    
N3    N6    A    
C60   C62   A    
C111  H106  S    
C6    N2    A    
C85   C86   S    
C95   H65   S    
N8    Ni3   S    
N9    N10   D    
C68   O18   S    
C71   H23   S    
C115  H117  S    
C6    C15   A    
O15   C109  S    
C66   C72   A    
N7    N20   A    
C61   H18   S    
C70   N11   S    
C98   H71   S    
C99   H76   S    
C17   C76   S    
C108  H98   S    
C79   O17   S    
N1    Ni1   S    
C70   C71   A    
C96   H66   S    
C56   N17   A    
C89   C90   S    
C29   C30   A    
C113  H111  S    
C86   H43   S    
C12   H7    S    
C16   C37   S    
C97   H70   S    
C5    N20   A    
C49   O9    S    
C2    C12   A    
O8    C98   S    
C87   H45   S    
C22   C28   A    
C21   C22   A    
C4    C56   A    
C91   H55   S    
C59   H20   S    
C73   C75   A    
C9    C17   A    
C36   C41   A    
O13   C105  S    
C54   O14   S    
N12   Ni2   S    
C30   H9    S    
N19   Ni3   S    
C41   C49   A    
C102  H83   S    
C44   C46   A    
O10   C100  S    
C39   C42   A    
C84   H38   S    
C109  H101  S    
C86   C87   S    
C4    C34   A    
C9    O3    S    
C34   H21   S    
C32   O7    S    
C51   C52   A    
C18   H5    S    
C96   C97   S    
O16   C110  S    
C82   H33   S    
C98   H72   S    
C103  H85   S    
C107  H96   S    
C2    C67   A    
C2    C51   S    
C93   H60   S    
C45   N16   A    
O12   C102  S    
C69   H25   S    
O11   C101  S    
O19   C115  S    
C55   O12   S    
N7    Ni4   S    
C11   H3    S    
C58   C59   A    
C91   H54   S    
C3    C45   A    
N3    Ni3   S    
C63   C64   A    
C60   C61   A    
C111  H107  S    
C96   H67   S    
C93   H59   S    
C95   C96   S    
C15   C19   S    
C101  H80   S    
N5    Ni2   S    
C37   C38   A    
O9    C99   S    
C67   N18   A    
C1    N1    A    
C88   H49   S    
C35   H8    S    
N16   Ni2   S    
C92   H58   S    
C47   C48   A    
C114  H115  S    
O14   C106  S    
C31   H10   S    
O17   C111  S    
C61   C63   A    
C50   C51   A    
C62   N10   S    
C77   C79   A    
C105  H91   S    
C46   C47   A    
C76   C77   A    
C106  H93   S    
C11   N7    A    
C113  H112  S    
C56   H26   S    
C5    C14   A    
C47   C52   A    
C81   H32   S    
C8    N4    A    
C7    O1    S    
C110  H105  S    
N15   Ni4   S    
C36   H11   S    
N2    Ni2   S    
C40   C41   A    
C114  H114  S    
C104  H87   S    
C87   H46   S    
C100  H78   S    
C13   C15   A    
C7    C16   A    
O5    C89   S    
C22   C24   A    
C101  H82   S    
C42   C43   A    
C104  H89   S    
C89   H50   S    
C66   C80   S    
N11   N13   D    
C110  H104  S    
N4    N5    A    
C58   O10   S    
C64   O11   S    
C81   H31   S    
C4    C33   S    
C21   C25   A    
C54   C55   A    
C42   O8    S    
C34   N15   A    
C93   C94   S    
C62   C65   A    
C108  H97   S    
C27   C32   A    
O3    C85   S    
C68   C69   A    
C50   H14   S    
N18   Ni4   S    
C23   N14   A    
C112  H110  S    
O2    C82   S    
C103  H86   S    
C91   H56   S    
C53   C54   A    
C112  H109  S    
C3    C63   S    
C10   O4    S    
C100  H79   S    
C20   O5    S    
C29   C35   A    
O1    C81   S    
C104  H88   S    
C8    C17   A    
C94   H62   S    
C106  C107  S    
N2    N8    A    
C111  H108  S    
C94   H63   S    
C32   C33   A    
C114  H113  S    
C55   C57   A    
C25   C26   A    
C24   C31   A    
C71   C72   A    
C108  H99   S    
C88   H48   S    
C10   C16   A    
C64   C65   A    
C67   H27   S    
C57   C58   A    
C30   C31   A    
O4    C88   S    
C98   H73   S    
C48   C49   A    
C5    H29   S    
C25   H6    S    
C33   C35   A    
N12   N18   A    
C106  H94   S    
C52   H16   S    
C107  C108  S    
C84   H37   S    
C85   H41   S    
C72   O16   S    
C95   H64   S    
C113  C114  S    
C92   C93   S    
N14   N16   A    
C105  H92   S    
O6    C92   S    
C97   H68   S    
C39   C40   A    
C86   H42   S    
C14   C53   S    
C20   C21   A    
C57   N9    S    
C44   C50   A    
C36   C37   A    
C100  H77   S    
C105  H90   S    
O18   C112  S    
C1    C80   A    
N20   Ni1   S    
O7    C95   S    
C77   H24   S    
N4    Ni4   S    
C90   H53   S    
C97   H69   S    
C99   H75   S    
C75   C79   A    
C85   H40   S    
C90   C91   S    
C102  C103  S    
C73   H22   S    
C12   N12   A    
C109  H100  S    
N1    N19   A    
C110  H103  S    
C27   C28   A    
N6    Ni1   S    
C115  H116  S    
