data_mof_unit_pretest_1542.cif
_audit_creation_date              2012-12-10T16:41:52-0500
_audit_creation_method            fapswitch 2.2
_symmetry_space_group_name_H-M    P1
_symmetry_Int_Tables_number       1
_space_group_crystal_system       triclinic
_cell_length_a                    26.177876
_cell_length_b                    26.203921
_cell_length_c                    18.505326
_cell_angle_alpha                 90.000657
_cell_angle_beta                  134.986037
_cell_angle_gamma                 90.008236
_cell_volume                      8978.17842485

loop_
_atom_site_label
_atom_site_type_symbol
_atom_type_description
_atom_site_fract_x
_atom_site_fract_y
_atom_site_fract_z
_atom_type_partial_charge
C1    C     C_R   0.610204 0.748803 0.497514 0.826270
C2    C     C_2   0.003591 0.279771 0.451425 -0.215314
C3    C     C_2   0.503593 0.220210 0.451446 -0.215417
C4    C     C_2   0.503056 0.779435 0.450388 -0.216744
C5    C     C_2   0.046333 0.760418 0.478050 0.059220
C6    C     C_2   0.046349 0.239579 0.478091 0.059155
C7    C     C_2   0.546345 0.260411 0.478075 0.059222
C8    C     C_2   0.546488 0.739453 0.478487 0.058391
C9    C     C_2   0.942390 0.722377 0.440317 -0.171351
C10   C     C_2   0.942406 0.277621 0.440329 -0.172742
C11   C     C_2   0.442412 0.222359 0.440357 -0.172724
C12   C     C_R   0.610219 0.251139 0.497530 0.822522
C13   C     C_2   0.442045 0.777287 0.439693 -0.172080
C14   C     C_2   0.948622 0.746536 0.509810 -0.333227
C15   C     C_2   0.948632 0.253486 0.509832 -0.332647
C16   C     C_2   0.448638 0.246523 0.509841 -0.332651
C17   C     C_2   0.448689 0.753716 0.510008 -0.332300
C18   C     C_2   0.750766 0.471919 0.441846 -0.161263
C19   C     C_2   0.748442 0.528078 0.439532 -0.162906
C20   C     C_2   0.248351 0.971918 0.439443 -0.161687
C21   C     C_2   0.250681 0.028078 0.441758 -0.161193
C22   C     C_2   0.747100 0.443861 0.498696 -0.295855
C23   C     C_R   0.110223 0.248856 0.497533 0.822577
C24   C     C_2   0.752435 0.556130 0.504029 -0.295298
C25   C     C_2   0.252399 0.943870 0.503993 -0.295786
C26   C     C_2   0.247084 0.056138 0.498680 -0.295958
C27   C     C_2   0.808919 0.028078 0.557573 -0.162619
C28   C     C_2   0.808928 0.971934 0.560023 -0.161836
C29   C     C_2   0.308927 0.528083 0.557746 -0.162138
C30   C     C_2   0.308937 0.471937 0.560156 -0.162587
C31   C     C_2   0.748439 0.056101 0.501183 -0.296634
C32   C     C_2   0.748453 0.943889 0.495512 -0.296346
C33   C     C_2   0.248437 0.556107 0.501188 -0.296412
C34   C     C_R   0.110216 0.751141 0.497524 0.822320
C35   C     C_2   0.248455 0.443892 0.495721 -0.296603
C36   C     C_R   0.889308 0.749365 0.501491 0.863599
C37   C     C_R   0.889310 0.250645 0.501501 0.862348
C38   C     C_R   0.389315 0.249358 0.501506 0.862518
C39   C     C_R   0.389328 0.750689 0.501552 0.862226
C40   C     C_R   0.749967 0.888575 0.499603 0.849534
C41   C     C_R   0.749959 0.111421 0.500249 0.852889
C42   C     C_R   0.249970 0.388576 0.499669 0.852876
C43   C     C_R   0.249960 0.611423 0.500256 0.852886
C44   C     C_R   0.750228 0.611461 0.500271 0.849567
C45   C     C_2   0.947133 0.745255 0.887414 -0.332398
C46   C     C_R   0.749637 0.388537 0.499681 0.850803
C47   C     C_R   0.249634 0.111463 0.499677 0.850849
C48   C     C_R   0.250211 0.888538 0.500255 0.850895
C49   C     C_R   0.612696 0.751216 0.222875 0.826380
C50   C     C_R   0.610218 0.251261 0.222891 0.826995
C51   C     C_R   0.110224 0.248736 0.222896 0.826794
C52   C     C_R   0.110217 0.751261 0.222891 0.827045
C53   C     C_R   0.889188 0.749315 0.777073 0.862593
C54   C     C_R   0.889184 0.250688 0.777070 0.862655
C55   C     C_R   0.389188 0.249315 0.777073 0.862574
C56   C     C_2   0.947123 0.254753 0.887416 -0.332562
C57   C     C_R   0.387773 0.749282 0.777053 0.862374
C58   C     C_2   0.057128 0.775001 0.055694 -0.217651
C59   C     C_2   0.057142 0.225035 0.055679 -0.217561
C60   C     C_2   0.557132 0.274996 0.055694 -0.217665
C61   C     C_2   0.552498 0.720466 0.055652 -0.217665
C62   C     C_2   0.046603 0.760944 0.114612 0.058512
C63   C     C_2   0.046613 0.239046 0.114611 0.058801
C64   C     C_2   0.546605 0.260944 0.114612 0.058676
C65   C     C_2   0.568025 0.760512 0.114455 0.059193
C66   C     C_2   0.999276 0.780346 0.944363 -0.172126
C67   C     C_2   0.447133 0.245254 0.887414 -0.332444
C68   C     C_2   0.999288 0.219689 0.944345 -0.172021
C69   C     C_2   0.499281 0.280342 0.944363 -0.172352
C70   C     C_2   0.502196 0.722585 0.944314 -0.171501
C71   C     C_3   0.972866 0.759831 0.077948 -0.387243
C72   C     C_3   0.970381 0.795495 0.140945 -0.870090
C73   C     C_3   0.972878 0.240102 0.077951 -0.387296
C74   C     C_3   0.970416 0.204413 0.140945 -0.870199
C75   C     C_3   0.472868 0.259837 0.077948 -0.387255
C76   C     C_3   0.470389 0.295504 0.140947 -0.870482
C77   C     C_3   0.548477 0.815816 0.077485 -0.390956
C78   C     C_2   0.438662 0.746305 0.887338 -0.332549
C79   C     C_3   0.615656 0.849657 0.139540 -0.863828
C80   C     C_3   0.027895 0.815791 0.477617 -0.390479
C81   C     C_3   0.021500 0.848409 0.402917 -0.869046
C82   C     C_3   0.027927 0.184208 0.477736 -0.390575
C83   C     C_3   0.021569 0.151538 0.403114 -0.869987
C84   C     C_3   0.527919 0.315783 0.477679 -0.390369
C85   C     C_3   0.521571 0.348428 0.403046 -0.870197
C86   C     C_3   0.529287 0.684150 0.481081 -0.390944
C87   C     C_3   0.524260 0.650166 0.408987 -0.865131
C88   C     C_2   0.003576 0.720220 0.451416 -0.215374
H1    H     H_    0.111639 0.781222 0.090254 0.157268
H2    H     H_    0.861144 0.953295 0.616697 0.174917
H3    H     H_    0.361149 0.546743 0.605637 0.175004
H4    H     H_    0.361161 0.453295 0.616718 0.174836
H5    H     H_    0.695611 0.039139 0.454812 0.150019
H6    H     H_    0.695623 0.960827 0.436188 0.150265
H7    H     H_    0.195586 0.539157 0.454644 0.149946
H8    H     H_    0.195605 0.460826 0.436559 0.150176
H9    H     H_    0.002853 0.811288 0.909049 0.184533
H10   H     H_    0.002882 0.188771 0.909012 0.184746
H11   H     H_    0.502861 0.311282 0.909050 0.184476
H12   H     H_    0.111655 0.218855 0.090233 0.157222
H13   H     H_    0.515562 0.701393 0.909045 0.184544
H14   H     H_    0.946588 0.712558 0.923020 0.158896
H15   H     H_    0.946563 0.287431 0.923041 0.158917
H16   H     H_    0.446585 0.212559 0.923019 0.158885
H17   H     H_    0.423684 0.764603 0.922906 0.158747
H18   H     H_    0.015411 0.682899 0.440517 0.157684
H19   H     H_    0.015421 0.317085 0.440482 0.157780
H20   H     H_    0.515426 0.182892 0.440533 0.157633
H21   H     H_    0.514089 0.816585 0.437737 0.158408
H22   H     H_    0.894080 0.700757 0.378889 0.185217
H23   H     H_    0.611644 0.281213 0.090254 0.157228
H24   H     H_    0.894097 0.299222 0.378885 0.184154
H25   H     H_    0.394106 0.200734 0.378935 0.184189
H26   H     H_    0.393345 0.798337 0.377511 0.184064
H27   H     H_    0.998919 0.765258 0.574837 0.158849
H28   H     H_    0.998929 0.234785 0.574874 0.158832
H29   H     H_    0.498933 0.265247 0.574867 0.158845
H30   H     H_    0.499278 0.735554 0.575673 0.158271
H31   H     H_    0.754912 0.453275 0.393721 0.175306
H32   H     H_    0.744179 0.546731 0.383015 0.174638
H33   H     H_    0.244043 0.953262 0.382886 0.175528
H34   H     H_    0.576017 0.683293 0.090359 0.157116
H35   H     H_    0.254778 0.046722 0.393580 0.175458
H36   H     H_    0.007418 0.782284 0.221272 0.265121
H37   H     H_    0.985471 0.834900 0.139807 0.257133
H38   H     H_    0.914775 0.796209 0.107819 0.247116
H39   H     H_    0.928558 0.772510 0.997783 0.227507
H40   H     H_    0.960786 0.720230 0.083587 0.210808
H41   H     H_    0.985531 0.165023 0.139804 0.257355
H42   H     H_    0.007444 0.217633 0.221274 0.265062
H43   H     H_    0.914810 0.203656 0.107818 0.246848
H44   H     H_    0.960776 0.279689 0.083600 0.210676
H45   H     H_    0.741000 0.460788 0.545507 0.150389
H46   H     H_    0.928576 0.227409 0.997784 0.227515
H47   H     H_    0.507423 0.282291 0.221274 0.265144
H48   H     H_    0.485485 0.334907 0.139813 0.257216
H49   H     H_    0.414782 0.296224 0.107819 0.246875
H50   H     H_    0.428562 0.272517 0.997784 0.227477
H51   H     H_    0.460783 0.220237 0.083587 0.210691
H52   H     H_    0.643169 0.852844 0.220150 0.262521
H53   H     H_    0.654012 0.833864 0.137505 0.256286
H54   H     H_    0.599693 0.888636 0.106256 0.247058
H55   H     H_    0.520616 0.819957 0.997082 0.227943
H56   H     H_    0.758582 0.539190 0.563073 0.150696
H57   H     H_    0.512108 0.830869 0.083842 0.210899
H58   H     H_    0.074150 0.851317 0.427171 0.261356
H59   H     H_    0.980750 0.831743 0.324931 0.257414
H60   H     H_    0.004033 0.887575 0.400279 0.248460
H61   H     H_    0.975577 0.819824 0.453569 0.227714
H62   H     H_    0.070600 0.831883 0.555819 0.210922
H63   H     H_    0.980842 0.168166 0.325103 0.257409
H64   H     H_    0.074234 0.148620 0.427418 0.261210
H65   H     H_    0.004089 0.112378 0.400511 0.248390
H66   H     H_    0.070625 0.168161 0.555968 0.210847
H67   H     H_    0.258580 0.960812 0.563066 0.150604
H68   H     H_    0.975600 0.180170 0.453666 0.227510
H69   H     H_    0.574238 0.351348 0.427354 0.261181
H70   H     H_    0.480845 0.331778 0.325045 0.257431
H71   H     H_    0.504097 0.387589 0.400421 0.248374
H72   H     H_    0.475588 0.319814 0.453594 0.227586
H73   H     H_    0.570612 0.331854 0.555902 0.210853
H74   H     H_    0.483800 0.665796 0.330111 0.255675
H75   H     H_    0.577320 0.647039 0.434498 0.263029
H76   H     H_    0.507115 0.611181 0.407989 0.246785
H77   H     H_    0.572059 0.669253 0.560292 0.210563
H78   H     H_    0.241028 0.039211 0.545541 0.150428
H79   H     H_    0.476801 0.679952 0.456504 0.227522
H80   H     H_    0.861131 0.046738 0.605343 0.174898
O1    O     O_3   0.750030 0.750030 0.500000 -0.484414
O2    O     O_R   0.750010 0.364550 0.560050 -0.647079
O3    O     O_R   0.250010 0.135450 0.560050 -0.647123
O4    O     O_R   0.250010 0.864550 0.560050 -0.646771
O5    O     O_R   0.605390 0.780070 0.439910 -0.651343
O6    O     O_R   0.605390 0.219930 0.439910 -0.654138
O7    O     O_R   0.105390 0.280070 0.439910 -0.653878
O8    O     O_R   0.105390 0.719930 0.439910 -0.654090
O9    O     O_R   0.834580 0.719970 0.439940 -0.639897
O10   O     O_R   0.834580 0.280030 0.439940 -0.641933
O11   O     O_R   0.334580 0.219970 0.439940 -0.641968
O12   O     O_3   0.750030 0.249970 0.500000 -0.484480
O13   O     O_R   0.334580 0.780030 0.439940 -0.641544
O14   O     O_R   0.665460 0.720000 0.560050 -0.641425
O15   O     O_R   0.665460 0.280000 0.560050 -0.640928
O16   O     O_R   0.165460 0.220000 0.560050 -0.640958
O17   O     O_R   0.165460 0.780000 0.560050 -0.641134
O18   O     O_R   0.894670 0.780060 0.560110 -0.647728
O19   O     O_R   0.894670 0.219940 0.560110 -0.647636
O20   O     O_R   0.394670 0.280060 0.560110 -0.647406
O21   O     O_R   0.394670 0.719940 0.560110 -0.647972
O22   O     O_R   0.689950 0.864610 0.439940 -0.647786
O23   O     O_3   0.250030 0.250030 0.500000 -0.484492
O24   O     O_R   0.689950 0.135390 0.439940 -0.645020
O25   O     O_R   0.189950 0.364610 0.439940 -0.644965
O26   O     O_R   0.189950 0.635390 0.439940 -0.645070
O27   O     O_R   0.750020 0.635440 0.439910 -0.643126
O28   O     O_R   0.750020 0.364560 0.439910 -0.641489
O29   O     O_R   0.250020 0.135440 0.439910 -0.641415
O30   O     O_R   0.250020 0.864560 0.439910 -0.641353
O31   O     O_R   0.605400 0.780060 0.270840 -0.640223
O32   O     O_R   0.605400 0.219940 0.270840 -0.640029
O33   O     O_R   0.105400 0.280060 0.270840 -0.640247
O34   O     O_3   0.250030 0.749970 0.500000 -0.484509
O35   O     O_R   0.105400 0.719940 0.270840 -0.639911
O36   O     O_R   0.834560 0.720000 0.729150 -0.645436
O37   O     O_R   0.834560 0.280000 0.729150 -0.645252
O38   O     O_R   0.334560 0.220000 0.729150 -0.645217
O39   O     O_R   0.334560 0.780000 0.729150 -0.645513
O40   O     O_R   0.665490 0.719970 0.270840 -0.654206
O41   O     O_R   0.665490 0.280030 0.270840 -0.654062
O42   O     O_R   0.165490 0.219970 0.270840 -0.653977
O43   O     O_R   0.165490 0.780030 0.270840 -0.654288
O44   O     O_R   0.894650 0.780070 0.729170 -0.641646
O45   O     O_R   0.810120 0.864610 0.560110 -0.642642
O46   O     O_R   0.894650 0.219930 0.729170 -0.641534
O47   O     O_R   0.394650 0.280070 0.729170 -0.641815
O48   O     O_R   0.394650 0.719930 0.729170 -0.641555
O49   O     O_R   0.810120 0.135390 0.560110 -0.643181
O50   O     O_R   0.310120 0.364610 0.560110 -0.643261
O51   O     O_R   0.310120 0.635390 0.560110 -0.642923
O52   O     O_R   0.750010 0.635450 0.560050 -0.647354
Zn1   Zn    Zn3+2 0.835880 0.792950 0.585850 0.961602
Zn2   Zn    Zn3+2 0.750030 0.292900 0.414160 0.959412
Zn3   Zn    Zn3+2 0.250030 0.207100 0.414160 0.959484
Zn4   Zn    Zn3+2 0.250030 0.792900 0.414160 0.959777
Zn5   Zn    Zn3+2 0.750010 0.707110 0.585820 0.961414
Zn6   Zn    Zn3+2 0.750010 0.292890 0.585820 0.961008
Zn7   Zn    Zn3+2 0.250010 0.207110 0.585820 0.961009
Zn8   Zn    Zn3+2 0.250010 0.792890 0.585820 0.960886
Zn9   Zn    Zn3+2 0.835880 0.207050 0.585850 0.962217
Zn10  Zn    Zn3+2 0.335880 0.292950 0.585850 0.962179
Zn11  Zn    Zn3+2 0.335880 0.707050 0.585850 0.962086
Zn12  Zn    Zn3+2 0.664180 0.792950 0.414160 0.959265
Zn13  Zn    Zn3+2 0.664180 0.207050 0.414160 0.959140
Zn14  Zn    Zn3+2 0.164180 0.292950 0.414160 0.959163
Zn15  Zn    Zn3+2 0.164180 0.707050 0.414160 0.959149
Zn16  Zn    Zn3+2 0.750030 0.707100 0.414160 0.959467

loop_
_geom_bond_atom_site_label_1
_geom_bond_atom_site_label_2
_ccdc_geom_bond_type
C61   C70   S    
C58   C62   D    
C87   H75   S    
C4    H21   S    
C75   C76   S    
C6    C82   S    
O1    Zn16  S    
C77   H57   S    
C70   C78   D    
O47   Zn10  S    
C50   C64   S    
C73   C74   S    
C32   H6    S    
C44   O52   A    
C3    C11   S    
O26   Zn15  S    
C4    C8    D    
C47   O3    A    
C84   H72   S    
C70   H13   S    
O24   Zn13  S    
O50   Zn10  S    
C79   H53   S    
C35   H8    S    
O23   Zn14  S    
C80   H62   S    
C37   O10   A    
C1    O5    A    
C49   C65   S    
C30   C35   D    
C43   O26   A    
C60   C69   S    
C66   H9    S    
C7    C84   S    
O21   Zn11  S    
C3    C7    D    
C10   C15   D    
C53   O44   A    
C9    C88   S    
C14   C36   S    
C39   O21   A    
O8    Zn15  S    
C23   O7    A    
C20   C25   D    
C6    C23   S    
C14   H27   S    
C1    C8    S    
C29   C33   D    
C2    H19   S    
O48   Zn11  S    
O38   Zn7   S    
C18   C19   S    
C17   C39   S    
C4    C13   S    
C35   C42   S    
C15   C37   S    
C73   H46   S    
O49   Zn9   S    
O34   Zn15  S    
C48   O4    A    
C5    C88   D    
O45   Zn1   S    
C58   C66   S    
O1    Zn1   S    
C50   O41   A    
C81   H59   S    
C11   H25   S    
C40   O45   A    
O52   Zn5   S    
C52   O43   A    
C49   O40   A    
O12   Zn2   S    
C38   O11   A    
O19   Zn9   S    
O40   Zn16  S    
O22   Zn12  S    
C13   H26   S    
C27   H80   S    
C27   C28   S    
C82   H68   S    
O7    Zn14  S    
C79   H52   S    
C73   H44   S    
C45   C53   S    
C74   H43   S    
C72   H36   S    
O13   Zn4   S    
C59   H12   S    
C48   O30   A    
C71   H39   S    
O2    Zn6   S    
C2    C6    D    
C86   H77   S    
C85   H69   S    
O20   Zn10  S    
C33   H7    S    
O15   Zn6   S    
C31   H5    S    
C25   H67   S    
C76   H47   S    
C28   H2    S    
C67   H16   S    
O9    Zn16  S    
C83   H63   S    
O44   Zn1   S    
C77   C79   S    
C76   H48   S    
C80   H61   S    
C54   C56   S    
O12   Zn9   S    
C53   O36   A    
C65   C77   S    
C86   H79   S    
C22   H45   S    
C27   C31   D    
C33   C43   S    
O34   Zn4   S    
C28   C32   D    
C42   O25   A    
C51   C63   S    
O32   Zn13  S    
C30   H4    S    
C9    C14   D    
C50   O32   A    
C86   C87   S    
O34   Zn8   S    
C63   C73   S    
C42   O50   A    
C76   H49   S    
O17   Zn8   S    
C47   O29   A    
C46   O2    A    
O11   Zn3   S    
C61   H34   S    
C67   C69   D    
C82   H66   S    
C21   H35   S    
C34   O17   A    
O30   Zn4   S    
O31   Zn12  S    
C77   H55   S    
O35   Zn15  S    
C29   C30   S    
O5    Zn12  S    
C59   C68   S    
C88   H18   S    
C11   C16   D    
C41   O49   A    
C57   O48   A    
C81   H60   S    
C5    C34   S    
O37   Zn6   S    
C84   C85   S    
C5    C80   S    
C10   H24   S    
C25   C48   S    
C20   H33   S    
C39   O13   A    
C17   H30   S    
C26   C47   S    
C22   C46   S    
O18   Zn1   S    
O3    Zn7   S    
C19   H32   S    
C82   C83   S    
C78   H17   S    
C24   C44   S    
O1    Zn5   S    
O27   Zn16  S    
C85   H70   S    
C2    C10   S    
O6    Zn13  S    
O23   Zn3   S    
O25   Zn14  S    
C29   H3    S    
C36   O18   A    
C12   O6    A    
C83   H64   S    
C49   O31   A    
C9    H22   S    
C54   O46   A    
C55   O38   A    
C26   H78   S    
C44   O27   A    
O23   Zn7   S    
O42   Zn3   S    
C31   C41   S    
C41   O24   A    
C7    C12   S    
C18   C22   D    
C57   C78   S    
C43   O51   A    
C36   O9    A    
C56   H15   S    
O51   Zn11  S    
C80   C81   S    
O29   Zn3   S    
C75   H50   S    
O12   Zn13  S    
C55   C67   S    
C1    O14   A    
O14   Zn5   S    
C46   O28   A    
C83   H65   S    
C3    H20   S    
C57   O39   A    
C59   C63   D    
O1    Zn12  S    
C13   C17   D    
C72   H37   S    
C60   C64   D    
C52   O35   A    
C56   C68   D    
C69   H11   S    
C74   H42   S    
C19   C24   D    
C23   O16   A    
C60   H23   S    
C75   H51   S    
C16   H29   S    
C55   O47   A    
O4    Zn8   S    
C51   O42   A    
O33   Zn14  S    
C37   O19   A    
O41   Zn2   S    
C24   H56   S    
O23   Zn10  S    
C38   O20   A    
O43   Zn4   S    
C21   C26   D    
O12   Zn6   S    
C12   O15   A    
C64   C75   S    
C62   C71   S    
C87   H76   S    
C8    C86   S    
C32   C40   S    
C71   H40   S    
C58   H1    S    
C68   H10   S    
C34   O8    A    
C45   H14   S    
C79   H54   S    
C61   C65   D    
O39   Zn8   S    
C71   C72   S    
C87   H74   S    
C40   O22   A    
C20   C21   S    
C81   H58   S    
C74   H41   S    
C72   H38   S    
C45   C66   D    
C15   H28   S    
O10   Zn2   S    
C52   C62   S    
C85   H71   S    
O16   Zn7   S    
O36   Zn5   S    
O46   Zn9   S    
C18   H31   S    
O28   Zn2   S    
C84   H73   S    
C51   O33   A    
C16   C38   S    
O34   Zn11  S    
C54   O37   A    
