data_mof_unit_pretest_571.cif
_audit_creation_date              2012-12-11T14:21:23-0500
_audit_creation_method            fapswitch 2.2
_symmetry_space_group_name_H-M    P1
_symmetry_Int_Tables_number       1
_space_group_crystal_system       triclinic
_cell_length_a                    21.949479
_cell_length_b                    7.20614
_cell_length_c                    14.913715
_cell_angle_alpha                 89.999602
_cell_angle_beta                  107.072855
_cell_angle_gamma                 90.000187
_cell_volume                      2254.96522348

loop_
_atom_site_label
_atom_site_type_symbol
_atom_type_description
_atom_site_fract_x
_atom_site_fract_y
_atom_site_fract_z
_atom_type_partial_charge
O1    O     O_R   0.584770 0.505770 0.002090 -0.539416
O2    O     O_R   0.415230 0.005770 0.997910 -0.539417
O3    O     O_R   0.467060 0.173340 0.861950 -0.535775
O4    O     O_R   0.532940 0.673340 0.138050 -0.535776
C1    C     C_R   0.455447 0.344337 0.825865 0.693739
C2    C     C_R   0.544553 0.844336 0.174136 0.693739
O5    O     O_R   0.587510 0.175890 0.993210 -0.541763
O6    O     O_R   0.412490 0.675890 0.006790 -0.541763
O7    O     O_R   0.536540 0.008150 0.130100 -0.536926
O8    O     O_R   0.463460 0.508150 0.869900 -0.536926
C3    C     C_R   0.613013 0.344916 0.997653 0.728160
C4    C     C_R   0.386987 0.844915 0.002347 0.728162
O9    O     O_3   0.483140 0.340040 0.044760 -0.377180
O10   O     O_3   0.516860 0.840040 0.955240 -0.377180
V1    V     V_3+5 0.503130 0.064190 0.991700 1.441178
V2    V     V_3+5 0.496870 0.564190 0.008300 1.441181
C5    C     C_2   0.213780 0.727463 0.002294 -0.121357
C6    C     C_2   0.786219 0.227462 0.997705 -0.121362
C7    C     C_2   0.180193 0.886684 0.995592 -0.292898
C8    C     C_2   0.819807 0.386683 0.004407 -0.292883
H1    H     H_    0.190640 0.596581 0.007874 0.140009
H2    H     H_    0.809359 0.096581 0.992125 0.140012
H3    H     H_    0.201769 0.018983 0.988760 0.130039
H4    H     H_    0.798231 0.518982 0.011239 0.130041
C9    C     C_2   0.281663 0.714511 0.002033 -0.137548
C10   C     C_2   0.718337 0.214511 0.997966 -0.137547
C11   C     C_2   0.319823 0.861393 0.002973 -0.301506
C12   C     C_2   0.680177 0.361394 0.997027 -0.301501
H5    H     H_    0.300768 0.575521 0.001936 0.142567
H6    H     H_    0.699230 0.075521 0.998062 0.142567
H7    H     H_    0.301971 0.001221 0.003897 0.137516
H8    H     H_    0.698029 0.501221 0.996104 0.137516
C13   C     C_R   0.926604 0.883735 0.723842 -0.124065
C14   C     C_R   0.073395 0.383733 0.276158 -0.124023
C15   C     C_R   0.572080 0.851457 0.275925 -0.056094
C16   C     C_R   0.427919 0.351460 0.724076 -0.056095
C17   C     C_R   0.935759 0.821999 0.569276 -0.222747
C18   C     C_R   0.064238 0.322035 0.430726 -0.222766
C19   C     C_R   0.964841 0.850121 0.665229 0.454401
C20   C     C_R   0.035155 0.350149 0.334770 0.454419
C21   C     C_R   0.860351 0.895966 0.686691 -0.275373
C22   C     C_R   0.139648 0.395950 0.313309 -0.275394
C23   C     C_R   0.829918 0.867748 0.589893 0.089373
C24   C     C_R   0.170080 0.367750 0.410109 0.089372
C25   C     C_R   0.869159 0.829368 0.531766 0.000031
C26   C     C_R   0.130838 0.329392 0.468237 0.000066
C27   C     C_R   0.762093 0.870246 0.549639 0.026591
C28   C     C_R   0.237904 0.370244 0.450363 0.026594
C29   C     C_R   0.734743 0.834253 0.451701 -0.051946
C30   C     C_R   0.265255 0.334263 0.548302 -0.051945
C31   C     C_R   0.776069 0.777709 0.398639 0.432540
C32   C     C_R   0.223927 0.277737 0.601367 0.432530
C33   C     C_R   0.841862 0.787257 0.437533 -0.239900
C34   C     C_R   0.158135 0.287294 0.562472 -0.239868
C35   C     C_R   0.720624 0.904144 0.604433 -0.184021
C36   C     C_R   0.279374 0.404132 0.395567 -0.184015
C37   C     C_R   0.654972 0.892695 0.566751 -0.158599
C38   C     C_R   0.345026 0.392684 0.433250 -0.158604
C39   C     C_R   0.626830 0.858121 0.471143 0.105303
C40   C     C_R   0.373168 0.358117 0.528857 0.105303
C41   C     C_R   0.666984 0.847574 0.411636 0.060303
C42   C     C_R   0.333014 0.347578 0.588366 0.060308
C43   C     C_R   0.559366 0.843974 0.432069 0.028673
C44   C     C_R   0.440632 0.343969 0.567931 0.028673
C45   C     C_R   0.533117 0.839800 0.334428 -0.201927
C46   C     C_R   0.466881 0.339798 0.665572 -0.201923
C47   C     C_R   0.637979 0.859255 0.313962 -0.188775
C48   C     C_R   0.362020 0.359262 0.686040 -0.188779
H9    H     H_    0.871862 0.751051 0.394076 0.138154
H10   H     H_    0.128134 0.251106 0.605932 0.138155
H11   H     H_    0.665387 0.881202 0.265579 0.167838
H12   H     H_    0.334613 0.381215 0.734423 0.167843
H13   H     H_    0.481952 0.828036 0.303523 0.105673
H14   H     H_    0.518046 0.328032 0.696476 0.105672
H15   H     H_    0.626738 0.920988 0.613501 0.172621
H16   H     H_    0.373259 0.420970 0.386498 0.172623
H17   H     H_    0.965161 0.787154 0.524617 0.125646
H18   H     H_    0.034839 0.287193 0.475390 0.125592
H19   H     H_    0.834207 0.921513 0.736270 0.112663
H20   H     H_    0.165793 0.421474 0.263728 0.112659
H21   H     H_    0.737173 0.937365 0.677932 0.122793
H22   H     H_    0.262825 0.437350 0.322068 0.122794
O11   O     O_R   0.036450 0.233070 0.130130 -0.533873
O12   O     O_R   0.963550 0.733070 0.869870 -0.533867
O13   O     O_R   0.912470 0.560570 0.006790 -0.546811
O14   O     O_R   0.087530 0.060570 0.993210 -0.546821
C49   C     C_R   0.887031 0.391893 0.002818 0.748566
C50   C     C_R   0.112969 0.891893 0.997182 0.748543
O15   O     O_R   0.032920 0.562940 0.138050 -0.545884
O16   O     O_R   0.967080 0.062940 0.861950 -0.545907
O17   O     O_R   0.084790 0.730500 0.002090 -0.537505
O18   O     O_R   0.915210 0.230500 0.997910 -0.537504
C51   C     C_R   0.045122 0.394277 0.174478 0.748391
C52   C     C_R   0.954878 0.894277 0.825522 0.748342
O19   O     O_3   0.016820 0.396170 0.955260 -0.380640
O20   O     O_3   0.983180 0.896170 0.044740 -0.380622
V3    V     V_3+5 0.996880 0.672090 0.008300 1.444284
V4    V     V_3+5 0.003120 0.172090 0.991700 1.444229
O21   O     O_3   0.029825 0.825576 0.703933 -0.557382
C53   C     C_3   0.062181 0.973122 0.675796 -0.270525
H23   H     H_    0.044504 0.110560 0.691719 0.137852
H24   H     H_    0.058611 0.962895 0.600040 0.136642
H25   H     H_    0.113415 0.964257 0.715789 0.180579
O22   O     O_3   0.970170 0.325615 0.296052 -0.557381
C54   C     C_3   0.937798 0.472944 0.324336 -0.270509
H26   H     H_    0.955522 0.610510 0.308677 0.137774
H27   H     H_    0.941290 0.462223 0.400048 0.136713
H28   H     H_    0.886580 0.464278 0.284232 0.180583
O23   O     O_3   0.753799 0.702102 0.309827 -0.565593
C55   C     C_3   0.744177 0.510164 0.318548 -0.259187
H29   H     H_    0.707278 0.483267 0.354634 0.151015
H30   H     H_    0.789462 0.438626 0.356003 0.139236
H31   H     H_    0.726845 0.449242 0.247231 0.169183
O24   O     O_3   0.246196 0.202142 0.690182 -0.565596
C56   C     C_3   0.255813 0.010199 0.681470 -0.259198
H32   H     H_    0.292711 0.983283 0.645385 0.151015
H33   H     H_    0.210526 0.938667 0.644018 0.139260
H34   H     H_    0.273144 0.949288 0.752789 0.169181
C57   C     C_2   0.513883 0.826711 0.488463 0.335208
H35   H     H_    0.464399 0.866226 0.457645 0.094315
O25   O     O_2   0.529528 0.758821 0.566873 -0.555833
C58   C     C_2   0.486114 0.326706 0.511536 0.335201
H36   H     H_    0.535598 0.366225 0.542353 0.094312
O26   O     O_2   0.470470 0.258811 0.433129 -0.555835

loop_
_geom_bond_atom_site_label_1
_geom_bond_atom_site_label_2
_ccdc_geom_bond_type
C43   C45   A    
C22   H20   S    
C14   C22   A    
C14   C51   S    
C33   H9    S    
C13   C52   S    
C2    O7    A    
O24   C56   S    
O19   V4    S    
O18   V4    S    
C27   C29   A    
O5    C3    A    
C54   H27   S    
C13   C19   A    
C14   C20   A    
O12   V3    S    
O14   C50   A    
C37   C39   A    
C15   C45   A    
C38   C40   A    
C56   H32   S    
O11   C51   A    
C8    C49   S    
C45   H13   S    
C2    C15   S    
C40   C42   A    
C55   H29   S    
C8    H4    S    
C24   C26   A    
C56   H33   S    
O11   V4    S    
C6    C10   S    
C30   C32   A    
C35   H21   S    
C6    C8    D    
C48   H12   S    
O5    V1    S    
C25   C33   A    
O6    V2    S    
C49   O18   A    
C21   C23   A    
C22   C24   A    
O22   C54   S    
C32   C34   A    
O16   C52   A    
O13   C49   A    
C9    H5    S    
C54   H28   S    
C39   C41   A    
C29   C41   A    
C4    C11   S    
C38   H16   S    
C12   H8    S    
O4    C2    A    
C7    C50   S    
C18   H18   S    
C29   C31   A    
C17   H17   S    
C53   H25   S    
C5    H1    S    
O15   V3    S    
C31   C33   A    
C44   C46   A    
O4    V2    S    
C7    H3    S    
C20   O22   S    
C43   C57   S    
C41   C47   A    
C16   C46   A    
C19   O21   S    
O21   C53   S    
C34   H10   S    
C50   O17   A    
C15   C47   A    
O6    C4    A    
C56   H34   S    
O20   V3    S    
C26   C34   A    
C53   H24   S    
O1    V2    S    
O12   C52   A    
O17   V3    S    
O2    V1    S    
C23   C25   A    
C55   H31   S    
C57   O25   D    
C1    C16   S    
C10   H6    S    
C35   C37   A    
C11   H7    S    
C30   C42   A    
C17   C25   A    
C58   O26   D    
O3    V1    S    
C27   C35   A    
O2    C4    A    
C28   C36   A    
C6    H2    S    
C10   C12   D    
O3    C1    A    
C21   H19   S    
C57   H35   S    
C16   C48   A    
C36   H22   S    
C32   O24   S    
C9    C11   D    
C54   H26   S    
C39   C43   A    
C42   C48   A    
C40   C44   A    
C13   C21   A    
C37   H15   S    
O7    V1    S    
C5    C9    S    
C1    O8    A    
C17   C19   A    
O8    V2    S    
O23   C55   S    
C18   C20   A    
C3    C12   S    
C44   C58   S    
C28   C30   A    
C53   H23   S    
C5    C7    D    
C36   C38   A    
C47   H11   S    
O15   C51   A    
O14   V4    S    
C55   H30   S    
C18   C26   A    
O13   V3    S    
C31   O23   S    
O9    V2    S    
O10   V1    S    
O1    C3    A    
C58   H36   S    
C23   C27   A    
O16   V4    S    
C24   C28   A    
C46   H14   S    
