data_mof_unit_pretest_486.cif
_audit_creation_date              2012-12-10T17:46:31-0500
_audit_creation_method            fapswitch 2.2
_symmetry_space_group_name_H-M    P1
_symmetry_Int_Tables_number       1
_space_group_crystal_system       triclinic
_cell_length_a                    20.542194
_cell_length_b                    21.276501
_cell_length_c                    14.82046
_cell_angle_alpha                 90.001569
_cell_angle_beta                  128.081914
_cell_angle_gamma                 89.999731
_cell_volume                      5098.6482149

loop_
_atom_site_label
_atom_site_type_symbol
_atom_type_description
_atom_site_fract_x
_atom_site_fract_y
_atom_site_fract_z
_atom_type_partial_charge
C1    C     C_R   0.601509 0.912229 0.629089 0.800485
C2    C     C_R   0.399285 0.088214 0.371842 0.799229
C3    C     C_R   0.398488 0.912228 0.370906 0.800478
C4    C     C_R   0.600715 0.088216 0.628159 0.799200
C5    C     C_R   0.101509 0.412228 0.629089 0.800483
C6    C     C_R   0.899285 0.588214 0.371842 0.799233
C7    C     C_R   0.898487 0.412229 0.370905 0.800478
C8    C     C_R   0.100715 0.588216 0.628159 0.799204
C9    C     C_R   0.265260 0.813429 0.865075 -0.218521
C10   C     C_R   0.703563 0.201196 0.107290 -0.219694
C11   C     C_R   0.734527 0.813333 0.134768 -0.218567
C12   C     C_R   0.296192 0.201081 0.892503 -0.219725
C13   C     C_R   0.765243 0.313436 0.865061 -0.218520
C14   C     C_R   0.203581 0.701188 0.107305 -0.219697
C15   C     C_R   0.234582 0.313352 0.134801 -0.218558
C16   C     C_R   0.796179 0.701078 0.892499 -0.219728
C17   C     C_R   0.321417 0.000690 0.669791 -0.317114
C18   C     C_R   0.678583 0.000626 0.330209 -0.317099
C19   C     C_R   0.821417 0.500686 0.669791 -0.317114
C20   C     C_R   0.178583 0.500631 0.330209 -0.317100
C21   C     C_R   0.349483 0.000636 0.604900 0.384921
C22   C     C_R   0.650518 0.000602 0.395101 0.384926
C23   C     C_R   0.849482 0.500634 0.604900 0.384919
C24   C     C_R   0.150518 0.500605 0.395101 0.384927
C25   C     C_R   0.488932 0.999658 0.775543 -0.035158
C26   C     C_R   0.511068 0.999672 0.224457 -0.035147
C27   C     C_R   0.988932 0.499659 0.775543 -0.035155
C28   C     C_R   0.011068 0.499671 0.224457 -0.035146
C29   C     C_R   0.462318 0.999806 0.845516 -0.025503
C30   C     C_R   0.537681 0.999801 0.154484 -0.025511
C31   C     C_R   0.962318 0.499806 0.845516 -0.025502
C32   C     C_R   0.037681 0.499801 0.154484 -0.025510
C33   C     C_R   0.376461 0.000160 0.788449 0.123155
C34   C     C_R   0.623539 0.000110 0.211551 0.123126
C35   C     C_R   0.876461 0.500157 0.788449 0.123156
C36   C     C_R   0.123539 0.500114 0.211551 0.123131
C37   C     C_R   0.516654 0.999716 0.968891 0.094500
C38   C     C_R   0.483345 0.999731 0.031108 0.094531
C39   C     C_R   0.016654 0.499718 0.968891 0.094503
C40   C     C_R   0.983345 0.499730 0.031108 0.094531
C41   C     C_R   0.396986 0.999840 0.967885 -0.243801
C42   C     C_R   0.603013 0.999775 0.032115 -0.243836
C43   C     C_R   0.896986 0.499836 0.967885 -0.243796
C44   C     C_R   0.103013 0.499780 0.032115 -0.243823
C45   C     C_R   0.344921 0.000095 0.849221 -0.208351
C46   C     C_R   0.655079 0.000014 0.150779 -0.208291
C47   C     C_R   0.844920 0.500089 0.849221 -0.208353
C48   C     C_R   0.155079 0.500020 0.150779 -0.208297
C49   C     C_R   0.650789 0.144558 0.690643 -0.068980
C50   C     C_R   0.343384 0.858766 0.302944 -0.069890
C51   C     C_R   0.349190 0.144542 0.309340 -0.068953
C52   C     C_R   0.656578 0.858749 0.697014 -0.069874
C53   C     C_R   0.150792 0.644556 0.690645 -0.068978
C54   C     C_R   0.843381 0.358768 0.302941 -0.069890
C55   C     C_R   0.849186 0.644539 0.309339 -0.068955
C56   C     C_R   0.156579 0.358748 0.697016 -0.069875
C57   C     C_R   0.711580 0.245253 0.703440 -0.188799
C58   C     C_R   0.267143 0.764353 0.276951 -0.189247
C59   C     C_R   0.288360 0.245220 0.296507 -0.188808
C60   C     C_R   0.732664 0.764261 0.722893 -0.189248
C61   C     C_R   0.211588 0.745249 0.703447 -0.188799
C62   C     C_R   0.767132 0.264358 0.276941 -0.189247
C63   C     C_R   0.788331 0.745209 0.296490 -0.188810
C64   C     C_R   0.232679 0.264267 0.722901 -0.189247
C65   C     C_R   0.671333 0.190107 0.642051 0.162463
C66   C     C_R   0.315317 0.815620 0.345159 0.163518
C67   C     C_R   0.328658 0.190098 0.357935 0.162450
C68   C     C_R   0.684552 0.815559 0.654731 0.163491
C69   C     C_R   0.171336 0.690106 0.642055 0.162463
C70   C     C_R   0.815311 0.315622 0.345153 0.163520
C71   C     C_R   0.828644 0.690092 0.357929 0.162454
C72   C     C_R   0.184565 0.315564 0.654739 0.163494
C73   C     C_R   0.670589 0.155717 0.798023 -0.294622
C74   C     C_R   0.322987 0.848977 0.194757 -0.297297
C75   C     C_R   0.329345 0.155675 0.201927 -0.294626
C76   C     C_R   0.677003 0.848977 0.805218 -0.297196
C77   C     C_R   0.170595 0.655713 0.798027 -0.294623
C78   C     C_R   0.822983 0.348979 0.194753 -0.297297
C79   C     C_R   0.829339 0.655673 0.201926 -0.294630
C80   C     C_R   0.176999 0.348971 0.805216 -0.297212
C81   C     C_R   0.705084 0.212980 0.856067 0.090007
C82   C     C_R   0.276577 0.796638 0.126892 0.089725
C83   C     C_R   0.294796 0.212919 0.143834 0.090019
C84   C     C_R   0.723290 0.796578 0.873000 0.089739
C85   C     C_R   0.205095 0.712975 0.856076 0.090008
C86   C     C_R   0.776566 0.296643 0.126882 0.089724
C87   C     C_R   0.794779 0.712913 0.143825 0.090021
C88   C     C_R   0.223305 0.296581 0.873007 0.089736
C89   C     C_R   0.727703 0.257149 0.808473 0.115475
C90   C     C_R   0.248766 0.754186 0.170125 0.116524
C91   C     C_R   0.272181 0.257090 0.191431 0.115486
C92   C     C_R   0.751041 0.754097 0.829720 0.116517
C93   C     C_R   0.227715 0.757143 0.808483 0.115475
C94   C     C_R   0.748753 0.254193 0.170113 0.116523
C95   C     C_R   0.772149 0.757078 0.191413 0.115488
C96   C     C_R   0.251056 0.254102 0.829727 0.116518
C97   C     C_R   0.717639 0.227507 0.959732 0.075818
C98   C     C_R   0.259072 0.784295 0.019158 0.076098
C99   C     C_R   0.282197 0.227427 0.040130 0.075825
C100  C     C_R   0.740756 0.784219 0.980708 0.076093
C101  C     C_R   0.217653 0.727500 0.959744 0.075820
C102  C     C_R   0.759058 0.284302 0.019146 0.076099
C103  C     C_R   0.782180 0.727424 0.040122 0.075823
C104  C     C_R   0.240783 0.284226 0.980722 0.076095
C105  C     C_R   0.281273 0.826741 0.968591 -0.213400
C106  C     C_R   0.688226 0.187913 0.004302 -0.216790
C107  C     C_R   0.718486 0.826636 0.031234 -0.213381
C108  C     C_R   0.311555 0.187810 0.995509 -0.216773
C109  C     C_R   0.781255 0.326749 0.968576 -0.213399
C110  C     C_R   0.188244 0.687905 0.004317 -0.216788
C111  C     C_R   0.218542 0.326654 0.031267 -0.213387
C112  C     C_R   0.811546 0.687810 0.995508 -0.216773
Cu1   Cu    Cu3+1 0.526640 0.000000 0.436960 0.924743
Cu2   Cu    Cu3+1 0.473360 0.000000 0.563040 0.924752
Cu3   Cu    Cu3+1 0.026640 0.500000 0.436960 0.924744
Cu4   Cu    Cu3+1 0.973360 0.500000 0.563040 0.924753
H1    H     H_    0.282529 0.847684 0.829004 0.150272
H2    H     H_    0.680605 0.169096 0.138716 0.151475
H3    H     H_    0.717217 0.847573 0.170810 0.150288
H4    H     H_    0.319102 0.168958 0.861038 0.151474
H5    H     H_    0.782509 0.347692 0.828987 0.150270
H6    H     H_    0.180626 0.669086 0.138733 0.151475
H7    H     H_    0.217292 0.347599 0.170857 0.150283
H8    H     H_    0.819092 0.668956 0.861036 0.151473
H9    H     H_    0.346394 0.882528 0.167010 0.153461
H10   H     H_    0.657948 0.118416 0.834276 0.149393
H11   H     H_    0.653735 0.882612 0.833048 0.153352
H12   H     H_    0.341999 0.118371 0.165696 0.149368
H13   H     H_    0.846397 0.382529 0.167010 0.153463
H14   H     H_    0.157950 0.618413 0.834278 0.149391
H15   H     H_    0.153706 0.382589 0.833035 0.153370
H16   H     H_    0.842001 0.618370 0.165699 0.149371
H17   H     H_    0.228381 0.780110 0.667624 0.135019
H18   H     H_    0.745482 0.231050 0.308580 0.135141
H19   H     H_    0.771532 0.780069 0.332308 0.135018
H20   H     H_    0.254276 0.230934 0.691221 0.135136
H21   H     H_    0.728373 0.280113 0.667616 0.135020
H22   H     H_    0.245495 0.731045 0.308592 0.135141
H23   H     H_    0.271571 0.280085 0.332331 0.135019
H24   H     H_    0.754257 0.730926 0.691212 0.135137
H25   H     H_    0.309632 0.871688 0.004928 0.139752
H26   H     H_    0.651473 0.146568 0.960827 0.144908
H27   H     H_    0.690015 0.871546 0.994841 0.139785
H28   H     H_    0.348273 0.146447 0.038941 0.144873
H29   H     H_    0.809608 0.371699 0.004908 0.139749
H30   H     H_    0.151494 0.646558 0.960846 0.144905
H31   H     H_    0.190106 0.371575 0.994892 0.139776
H32   H     H_    0.848272 0.646451 0.038945 0.144875
H33   H     H_    0.278695 0.000276 0.804211 0.141371
H34   H     H_    0.721305 0.000157 0.195789 0.141390
H35   H     H_    0.778695 0.500268 0.804211 0.141369
H36   H     H_    0.221305 0.500167 0.195789 0.141383
H37   H     H_    0.446555 0.999329 0.187092 0.125728
H38   H     H_    0.553445 0.999292 0.812908 0.125726
H39   H     H_    0.946555 0.499325 0.187092 0.125728
H40   H     H_    0.053445 0.499294 0.812908 0.125727
H41   H     H_    0.255350 0.001178 0.626577 0.145879
H42   H     H_    0.744651 0.001081 0.373424 0.145886
H43   H     H_    0.755350 0.501172 0.626576 0.145878
H44   H     H_    0.244651 0.501089 0.373424 0.145884
N1    N     N_R   0.433280 0.000000 0.657760 -0.168769
N2    N     N_R   0.566720 0.000000 0.342240 -0.168774
N3    N     N_R   0.933280 0.500000 0.657760 -0.168770
N4    N     N_R   0.066720 0.500000 0.342240 -0.168774
O1    O     O_R   0.600040 0.935040 0.546740 -0.581787
O2    O     O_R   0.399960 0.064960 0.453260 -0.581696
O3    O     O_R   0.399960 0.935040 0.453260 -0.581792
O4    O     O_R   0.600040 0.064960 0.546740 -0.581714
O5    O     O_R   0.100040 0.435040 0.546740 -0.581787
O6    O     O_R   0.899960 0.564960 0.453260 -0.581699
O7    O     O_R   0.899960 0.435040 0.453260 -0.581791
O8    O     O_R   0.100040 0.564960 0.546740 -0.581712
O9    O     O_R   0.555010 0.935070 0.653220 -0.585124
O10   O     O_R   0.444990 0.064930 0.346780 -0.585606
O11   O     O_R   0.444990 0.935070 0.346780 -0.585132
O12   O     O_R   0.555010 0.064930 0.653220 -0.585593
O13   O     O_R   0.055010 0.435070 0.653220 -0.585124
O14   O     O_R   0.944990 0.564930 0.346780 -0.585608
O15   O     O_R   0.944990 0.435070 0.346780 -0.585133
O16   O     O_R   0.055010 0.564930 0.653220 -0.585593
H45   H     H_    0.367435 0.999880 0.007751 0.125602
H46   H     H_    0.632564 0.999785 0.992249 0.125624
H47   H     H_    0.867435 0.499874 0.007751 0.125601
H48   H     H_    0.132565 0.499793 0.992249 0.125620
C113  C     C_3   0.338561 0.820874 0.463359 -0.825092
H49   H     H_    0.406897 0.822637 0.528911 0.241150
H50   H     H_    0.310416 0.863591 0.469043 0.246546
H51   H     H_    0.316185 0.780024 0.484032 0.212123
C114  C     C_3   0.648504 0.182834 0.524379 -0.823927
H52   H     H_    0.580671 0.176094 0.459626 0.242481
H53   H     H_    0.665521 0.224983 0.498763 0.211765
H54   H     H_    0.681754 0.142188 0.523275 0.244998
C115  C     C_3   0.661283 0.820809 0.536518 -0.825095
H55   H     H_    0.592947 0.822618 0.470992 0.241136
H56   H     H_    0.689470 0.863501 0.530845 0.246535
H57   H     H_    0.683595 0.779934 0.515797 0.212138
C116  C     C_3   0.351559 0.182861 0.475654 -0.823925
H58   H     H_    0.419398 0.176134 0.540360 0.242452
H59   H     H_    0.334561 0.225020 0.501275 0.211783
H60   H     H_    0.318340 0.142220 0.476840 0.245001
C117  C     C_3   0.838558 0.320874 0.463355 -0.825091
H61   H     H_    0.906895 0.322636 0.528905 0.241147
H62   H     H_    0.810415 0.363591 0.469043 0.246545
H63   H     H_    0.816183 0.280023 0.484028 0.212123
C118  C     C_3   0.148501 0.682836 0.524379 -0.823929
H64   H     H_    0.080668 0.676097 0.459629 0.242478
H65   H     H_    0.165518 0.724985 0.498764 0.211765
H66   H     H_    0.181749 0.642190 0.523268 0.244998
C119  C     C_3   0.161301 0.320817 0.536529 -0.825094
H67   H     H_    0.092965 0.322622 0.470999 0.241138
H68   H     H_    0.189485 0.363512 0.530860 0.246536
H69   H     H_    0.183620 0.279946 0.515811 0.212137
C120  C     C_3   0.851549 0.682857 0.475650 -0.823918
H70   H     H_    0.919390 0.676135 0.540355 0.242449
H71   H     H_    0.834545 0.725014 0.501266 0.211782
H72   H     H_    0.818337 0.642212 0.476841 0.245002
C121  C     C_3   0.718380 0.001590 0.522950 -0.824867
H73   H     H_    0.699126 0.999813 0.576725 0.277835
H74   H     H_    0.759953 0.960723 0.547698 0.194622
H75   H     H_    0.755726 0.044990 0.546415 0.197870
C122  C     C_3   0.281621 0.001639 0.477051 -0.824888
H76   H     H_    0.300872 0.999803 0.423275 0.277838
H77   H     H_    0.239992 0.960809 0.452297 0.194588
H78   H     H_    0.244332 0.045070 0.453591 0.197904
C123  C     C_3   0.218380 0.501595 0.522950 -0.824869
H79   H     H_    0.199126 0.499812 0.576725 0.277836
H80   H     H_    0.259959 0.460731 0.547699 0.194617
H81   H     H_    0.255721 0.544998 0.546414 0.197874
C124  C     C_3   0.781621 0.501636 0.477051 -0.824887
H82   H     H_    0.800872 0.499804 0.423275 0.277838
H83   H     H_    0.739994 0.460805 0.452296 0.194588
H84   H     H_    0.744329 0.545066 0.453591 0.197901

loop_
_geom_bond_atom_site_label_1
_geom_bond_atom_site_label_2
_ccdc_geom_bond_type
C88   C96   A    
C14   H6    S    
C7    O7    A    
C114  H54   S    
C33   C45   A    
C117  H61   S    
Cu4   N3    S    
C53   C77   A    
C6    C55   S    
Cu3   O5    S    
C53   C69   A    
C76   C84   A    
Cu1   O4    S    
C64   H20   S    
C117  H62   S    
C61   H17   S    
Cu2   O3    S    
C61   C69   A    
C120  H70   S    
C42   H46   S    
C121  H75   S    
C99   C108  A    
C1    O9    A    
C37   C38   A    
C98   C105  A    
C57   C89   A    
C10   H2    S    
C32   C36   A    
C78   H13   S    
C51   C75   A    
C124  H84   S    
C50   C74   A    
Cu1   O1    S    
C22   N2    A    
C61   C93   A    
C113  H50   S    
C74   H9    S    
C10   C94   A    
C9    C105  A    
Cu3   Cu4   S    
C63   C95   A    
C37   C42   A    
C123  H81   S    
C13   H5    S    
C30   C38   A    
C114  H53   S    
C75   H12   S    
C42   C46   A    
C43   H47   S    
Cu3   N4    S    
C116  H59   S    
C14   C90   A    
C13   C109  A    
C86   C94   A    
C77   C85   A    
C59   C67   A    
Cu1   N2    S    
C12   H4    S    
C85   C93   A    
C58   C66   A    
C40   C43   A    
C20   C24   A    
C29   C33   A    
C25   N1    A    
C56   C72   A    
C87   C95   A    
C28   H39   S    
Cu2   O2    S    
C68   C115  S    
C34   C46   A    
C59   H23   S    
C20   H44   S    
C17   H41   S    
C44   H48   S    
C97   C102  A    
C52   C68   A    
Cu1   O11   S    
C27   N3    A    
C60   C92   A    
C78   C86   A    
C70   C117  S    
C120  H71   S    
C99   C104  A    
C11   H3    S    
C80   H15   S    
C83   C99   A    
Cu4   O13   S    
C6    O14   A    
C82   C98   A    
C49   C65   A    
C41   H45   S    
C24   N4    A    
C17   C33   A    
C74   C82   A    
C58   C90   A    
C73   C81   A    
C88   C104  A    
C3    C50   S    
C106  H26   S    
C23   N3    A    
Cu2   O9    S    
C25   C29   A    
C21   N1    A    
C30   C34   A    
C122  H77   S    
C3    O3    A    
C84   C100  A    
C75   C83   A    
C15   C111  A    
C28   C32   A    
Cu4   O6    S    
C64   C96   A    
C38   C41   A    
C39   C40   A    
C12   C108  A    
C11   C107  A    
C113  H51   S    
C51   C67   A    
C115  H56   S    
C121  H73   S    
C71   C120  S    
C27   C31   A    
C26   N2    A    
C100  C103  A    
C17   C21   A    
C112  H32   S    
Cu4   O7    S    
C65   C114  S    
C103  C112  A    
C63   H19   S    
C116  H60   S    
C19   C23   A    
C62   C94   A    
C124  H82   S    
C18   H42   S    
C111  H31   S    
C122  H76   S    
C55   C79   A    
C8    O16   A    
C72   C119  S    
C54   C70   A    
C1    O1    A    
C115  H57   S    
C119  H67   S    
C57   H21   S    
C114  H52   S    
C59   C91   A    
C50   C66   A    
C5    O13   A    
C79   C87   A    
C15   H7    S    
C60   H24   S    
C87   C103  A    
C97   C106  A    
C63   C71   A    
C118  H64   S    
C3    O11   A    
C46   H34   S    
C22   C121  S    
C47   H35   S    
C16   C92   A    
C5    C56   S    
C48   H36   S    
C52   C76   A    
C117  H63   S    
C49   C73   A    
C10   C106  A    
C121  H74   S    
C107  H27   S    
C24   C123  S    
C86   C102  A    
C9    C93   A    
C108  H28   S    
C32   C40   A    
C85   C101  A    
C16   C112  A    
Cu1   Cu2   S    
C6    O6    A    
C120  H72   S    
C11   C95   A    
C27   H40   S    
C14   C110  A    
C28   N4    A    
C2    O2    A    
C119  H68   S    
C100  C107  A    
C5    O5    A    
C21   C122  S    
C13   C89   A    
C25   H38   S    
C18   C22   A    
C4    O4    A    
C109  H29   S    
C57   C65   A    
Cu3   O8    S    
Cu2   N1    S    
C82   C90   A    
C8    C53   S    
C104  C111  A    
C62   C70   A    
C26   C30   A    
C39   C44   A    
C122  H78   S    
C98   C101  A    
C83   C91   A    
C69   C118  S    
C56   C80   A    
C4    C49   S    
C7    O15   A    
C19   H43   S    
C62   H18   S    
Cu4   O16   S    
C73   H10   S    
C101  C110  A    
C81   C89   A    
C80   C88   A    
C19   C35   A    
C2    O10   A    
C105  H25   S    
C58   H22   S    
C113  H49   S    
C81   C97   A    
C18   C34   A    
C79   H16   S    
C31   C35   A    
Cu2   O12   S    
C123  H80   S    
C31   C39   A    
C36   C48   A    
C45   H33   S    
C77   H14   S    
C64   C72   A    
C16   H8    S    
C116  H58   S    
C1    C52   S    
Cu3   O15   S    
Cu3   O14   S    
C2    C51   S    
C26   H37   S    
C15   C91   A    
C20   C36   A    
C8    O8    A    
C60   C68   A    
C124  H83   S    
C115  H55   S    
C4    O12   A    
C66   C113  S    
C29   C37   A    
C76   H11   S    
C41   C45   A    
C67   C116  S    
C12   C96   A    
C102  C109  A    
C118  H66   S    
C84   C92   A    
C7    C54   S    
C54   C78   A    
C35   C47   A    
C110  H30   S    
C118  H65   S    
C43   C47   A    
C119  H69   S    
C55   C71   A    
C9    H1    S    
C44   C48   A    
C23   C124  S    
Cu1   O10   S    
C123  H79   S    
