data_mof_unit_pretest_1022.cif
_audit_creation_date              2012-12-10T18:07:38-0500
_audit_creation_method            fapswitch 2.2
_symmetry_space_group_name_H-M    P1
_symmetry_Int_Tables_number       1
_space_group_crystal_system       triclinic
_cell_length_a                    11.518235
_cell_length_b                    12.75442
_cell_length_c                    13.005947
_cell_angle_alpha                 81.965917
_cell_angle_beta                  93.394477
_cell_angle_gamma                 102.064588
_cell_volume                      1849.25397218

loop_
_atom_site_label
_atom_site_type_symbol
_atom_type_description
_atom_site_fract_x
_atom_site_fract_y
_atom_site_fract_z
_atom_type_partial_charge
C1    C     C_R   0.477889 0.439794 0.690572 0.854514
C2    C     C_R   0.394154 0.658081 0.878359 0.434720
C3    C     C_R   0.382002 0.571926 0.819790 -0.299660
C4    C     C_R   0.717517 0.500982 0.500583 0.886517
C5    C     C_R   0.438077 0.513813 0.137932 -0.291608
C6    C     C_R   0.516926 0.703479 0.148117 0.169395
C7    C     C_R   0.445205 0.402510 0.798726 -0.138111
C8    C     C_R   0.295419 0.087859 0.376462 0.146100
C9    C     C_R   0.637752 0.796642 0.634540 -0.051858
C10   C     C_R   0.649767 0.891142 0.679810 0.035952
C11   C     C_R   0.579473 0.967247 0.639435 0.573141
C12   C     C_R   0.491318 0.595139 0.196309 -0.103535
C13   C     C_R   0.515554 0.955632 0.543062 -0.124021
C14   C     C_R   0.497186 0.853826 0.506472 0.024431
C15   C     C_R   0.461366 0.038500 0.486600 -0.085956
C16   C     C_R   0.509379 0.560527 0.307826 0.888607
C17   C     C_R   0.367755 0.012177 0.412676 -0.000553
C18   C     C_R   0.355540 0.915243 0.371529 0.061147
C19   C     C_R   0.413477 0.834784 0.421655 0.433326
C20   C     C_R   0.501910 0.148954 0.494696 0.584095
C21   C     C_R   0.337248 0.194267 0.391360 -0.108919
C22   C     C_R   0.282467 0.498961 0.499571 0.889845
C23   C     C_R   0.455362 0.297654 0.841883 -0.187006
C24   C     C_1   0.838766 0.502766 0.500845 -0.165632
C25   C     C_1   0.940905 0.501508 0.500444 0.009717
C26   C     C_1   0.059178 0.498667 0.499688 0.003203
C27   C     C_1   0.161274 0.497279 0.499300 -0.197926
C28   C     C_R   0.468865 0.728119 0.046458 0.177417
C29   C     C_3   0.601724 0.789653 0.199759 -0.846437
C30   C     C_3   0.302111 0.903940 0.262548 -0.910080
C31   C     C_3   0.169484 0.057535 0.334681 -0.887688
C32   C     C_3   0.736058 0.908028 0.770658 -0.923355
C33   C     C_3   0.461610 0.844177 0.006282 -0.809786
C34   C     C_R   0.445724 0.266096 0.948415 0.252803
C35   C     C_3   0.456825 0.153932 0.995466 -0.928838
C36   C     C_R   0.433002 0.341978 0.012455 -0.182739
C37   C     C_R   0.420877 0.448450 0.970140 0.065740
C38   C     C_R   0.414616 0.473907 0.861868 0.031433
C39   C     C_R   0.427086 0.533538 0.031198 -0.026833
C40   C     C_R   0.429282 0.641865 0.984648 0.057092
H1    H     H_    0.685257 0.734359 0.667306 0.165406
H2    H     H_    0.208279 0.859892 0.266076 0.240805
H3    H     H_    0.351798 0.858652 0.220135 0.255947
H4    H     H_    0.308906 0.983574 0.214011 0.255595
H5    H     H_    0.131762 0.970332 0.355896 0.258013
H6    H     H_    0.111404 0.101489 0.369800 0.239940
H7    H     H_    0.165675 0.079974 0.249146 0.239645
H8    H     H_    0.598651 0.242837 0.581704 0.376906
H9    H     H_    0.599954 0.037825 0.766330 0.338339
H10   H     H_    0.792921 0.846642 0.782492 0.246651
H11   H     H_    0.795373 0.988945 0.756400 0.259334
H12   H     H_    0.407843 0.433183 0.176332 0.177526
H13   H     H_    0.687862 0.901605 0.843165 0.239398
H14   H     H_    0.303554 0.721402 0.361004 0.326329
H15   H     H_    0.355556 0.754655 0.756529 0.336935
H16   H     H_    0.368226 0.848813 0.983609 0.276907
H17   H     H_    0.487722 0.900140 0.065359 0.219323
H18   H     H_    0.519681 0.874919 0.939248 0.259973
H19   H     H_    0.468192 0.103428 0.935216 0.253985
H20   H     H_    0.534880 0.158202 0.050226 0.244081
H21   H     H_    0.375530 0.113978 0.038518 0.242156
H22   H     H_    0.475141 0.241612 0.793217 0.184631
H23   H     H_    0.436837 0.315535 0.094727 0.142343
H24   H     H_    0.351024 0.583740 0.739721 0.173241
H25   H     H_    0.286108 0.255302 0.363550 0.170143
H26   H     H_    0.667357 0.754370 0.251956 0.240094
H27   H     H_    0.655625 0.848290 0.140901 0.227754
H28   H     H_    0.552578 0.833421 0.244087 0.265958
N1    N     N_R   0.440320 0.222190 0.444690 -0.180992
N2    N     N_R   0.559060 0.776980 0.554780 -0.118635
O1    O     O_R   0.471500 0.366730 0.627160 -0.630003
O2    O     O_3   0.560498 0.045337 0.696949 -0.759397
O3    O     O_3   0.388322 0.738246 0.384160 -0.713726
O4    O     O_3   0.375068 0.757410 0.831539 -0.781682
O5    O     O_R   0.509620 0.544830 0.662520 -0.617159
O6    O     O_R   0.646490 0.410960 0.482310 -0.597055
O7    O     O_R   0.684610 0.589050 0.517670 -0.616871
O8    O     O_R   0.490380 0.455170 0.337480 -0.626760
O9    O     O_R   0.528500 0.633270 0.372840 -0.526177
O10   O     O_R   0.315390 0.410950 0.482330 -0.618499
O11   O     O_R   0.353510 0.589040 0.517690 -0.570649
O12   O     O_3   0.609173 0.184156 0.543326 -0.726022
Zn1   Zn    Zn3+2 0.474550 0.381080 0.476390 0.948440
Zn2   Zn    Zn3+2 0.525450 0.618920 0.523610 0.969176

loop_
_geom_bond_atom_site_label_1
_geom_bond_atom_site_label_2
_ccdc_geom_bond_type
C33   H18   S    
C20   O12   S    
C3    H24   S    
C26   C27   T    
C1    O1    A    
C36   C37   A    
C18   C19   A    
C6    C12   A    
O9    Zn2   S    
C4    C24   S    
O5    Zn2   S    
C28   C40   A    
H14   O3    S    
C35   H19   S    
C34   C35   S    
C29   H27   S    
H15   O4    S    
O8    Zn1   S    
C23   H22   S    
C6    C28   A    
C12   C16   S    
C3    C38   A    
H9    O2    S    
C5    H12   S    
C18   C30   S    
C36   H23   S    
N2    Zn2   S    
C9    C10   A    
C16   O8    A    
C2    O4    S    
C33   H16   S    
C31   H7    S    
C13   C14   A    
C14   N2    A    
C30   H4    S    
O10   Zn1   S    
O6    Zn1   S    
C8    C21   A    
O1    Zn1   S    
C15   C20   A    
C1    O5    A    
C22   O11   A    
C19   O3    S    
C9    N2    A    
C5    C12   A    
C39   C40   A    
C11   O2    S    
O7    Zn2   S    
C25   C26   S    
C31   H6    S    
C21   N1    A    
C35   H20   S    
C32   H11   S    
C37   C38   A    
N1    Zn1   S    
C10   C32   S    
C29   H28   S    
C23   C34   A    
C17   C18   A    
C35   H21   S    
C24   C25   T    
C32   H10   S    
C28   C33   S    
C22   C27   S    
C5    C39   A    
C30   H3    S    
C32   H13   S    
O11   Zn2   S    
C15   C17   A    
C33   H17   S    
C21   H25   S    
C1    C7    S    
C8    C31   S    
C14   C19   A    
C9    H1    S    
C8    C17   A    
C16   O9    A    
C13   C15   A    
C2    C3    A    
C22   O10   A    
C4    O7    A    
C37   C39   A    
C11   C13   A    
C7    C23   A    
C7    C38   A    
H8    O12   S    
C34   C36   A    
C20   N1    A    
C4    O6    A    
C10   C11   A    
C29   H26   S    
C2    C40   A    
C6    C29   S    
C31   H5    S    
C30   H2    S    
