data_mof_unit_pretest_1785.cif
_audit_creation_date              2012-10-26T17:55:14-0400
_audit_creation_method            fapswitch 2.2
_symmetry_space_group_name_H-M    P1
_symmetry_Int_Tables_number       1
_space_group_crystal_system       triclinic
_cell_length_a                    21.774993
_cell_length_b                    21.774993
_cell_length_c                    29.379543
_cell_angle_alpha                 90.00002
_cell_angle_beta                  90.00002
_cell_angle_gamma                 89.999978
_cell_volume                      13930.3197193

loop_
_atom_site_label
_atom_site_type_symbol
_atom_type_description
_atom_site_fract_x
_atom_site_fract_y
_atom_site_fract_z
_atom_type_partial_charge
C1    C     C_R   0.381298 0.000000 0.000000 0.616806
C2    C     C_R   0.120073 0.000000 0.000000 0.567836
C3    C     C_2   0.062980 0.687095 0.926629 0.592422
C4    C     C_2   0.687095 0.062980 0.073371 0.592422
C5    C     C_2   0.062980 0.312905 0.073371 0.592422
C6    C     C_2   0.312905 0.937020 0.073371 0.592422
C7    C     C_2   0.937020 0.687095 0.073371 0.592421
C8    C     C_2   0.812905 0.562980 0.426629 0.592421
C9    C     C_2   0.437020 0.812905 0.426629 0.592422
C10   C     C_2   0.187095 0.437020 0.426629 0.592422
C11   C     C_2   0.562980 0.187095 0.426629 0.592422
C12   C     C_2   0.187095 0.562980 0.573371 0.592422
C13   C     C_R   1.000000 0.120073 0.000000 0.567836
C14   C     C_2   0.562980 0.812905 0.573371 0.592422
C15   C     C_2   0.812905 0.437020 0.573371 0.592422
C16   C     C_2   0.437020 0.187095 0.573371 0.592421
C17   C     C_R   0.879927 0.000000 1.000000 0.567835
C18   C     C_R   0.500000 0.379927 0.500000 0.567835
C19   C     C_R   0.620073 0.500000 0.500000 0.567836
C20   C     C_R   0.500000 0.620073 0.500000 0.567836
C21   C     C_R   0.379927 0.500000 0.500000 0.567835
C22   C     C_R   0.500000 0.000000 0.084606 0.600379
C23   C     C_R   0.000000 0.500000 0.084606 0.600380
C24   C     C_R   0.500000 1.000000 0.915394 0.600380
C25   C     C_R   0.000000 0.381298 0.000000 0.616805
C26   C     C_R   0.000000 0.500000 0.915394 0.600379
C27   C     C_R   1.000000 0.500000 0.584606 0.600379
C28   C     C_R   0.500000 0.000000 0.584606 0.600380
C29   C     C_R   0.000000 0.500000 0.415394 0.600380
C30   C     C_R   0.500000 0.000000 0.415394 0.600379
C31   C     C_1   0.500000 0.000000 0.135899 0.003326
C32   C     C_1   0.000000 0.500000 0.135899 0.003326
C33   C     C_1   0.500000 1.000000 0.864101 0.003326
C34   C     C_1   1.000000 0.500000 0.864101 0.003327
C35   C     C_1   1.000000 0.500000 0.635899 0.003326
C36   C     C_R   0.618702 1.000000 1.000000 0.616805
C37   C     C_1   0.500000 1.000000 0.635899 0.003326
C38   C     C_1   0.000000 0.500000 0.364101 0.003326
C39   C     C_1   0.500000 0.000000 0.364101 0.003327
C40   C     C_1   0.500000 0.000000 0.178373 -0.014987
C41   C     C_1   0.000000 0.500000 0.178373 -0.014987
C42   C     C_1   0.500000 1.000000 0.821627 -0.014987
C43   C     C_1   1.000000 0.500000 0.821627 -0.014987
C44   C     C_1   1.000000 0.500000 0.678373 -0.014987
C45   C     C_1   0.500000 1.000000 0.678373 -0.014987
C46   C     C_1   0.000000 0.500000 0.321627 -0.014987
C47   C     C_R   1.000000 0.618702 1.000000 0.616806
C48   C     C_1   0.500000 0.000000 0.321627 -0.014987
C49   C     C_1   0.500000 0.000000 0.228761 0.028260
C50   C     C_1   0.000000 0.500000 0.228761 0.028260
C51   C     C_1   0.500000 1.000000 0.771239 0.028260
C52   C     C_1   1.000000 0.500000 0.771239 0.028260
C53   C     C_1   1.000000 0.500000 0.728761 0.028260
C54   C     C_1   0.500000 1.000000 0.728761 0.028260
C55   C     C_1   0.000000 0.500000 0.271239 0.028260
C56   C     C_1   0.500000 0.000000 0.271239 0.028260
C57   C     C_R   0.282031 0.031285 0.965106 0.021064
C58   C     C_R   0.881298 0.500000 0.500000 0.616805
C59   C     C_R   0.968715 0.282031 0.965106 0.021065
C60   C     C_R   0.717969 0.968715 0.965106 0.021064
C61   C     C_R   0.031285 0.717969 0.965106 0.021065
C62   C     C_R   0.717969 0.031285 0.034893 0.021065
C63   C     C_R   0.031285 0.282031 0.034893 0.021064
C64   C     C_R   0.282031 0.968715 0.034893 0.021065
C65   C     C_R   0.968715 0.717969 0.034893 0.021065
C66   C     C_R   0.782030 0.531285 0.465106 0.021064
C67   C     C_R   0.468715 0.782031 0.465106 0.021065
C68   C     C_R   0.217969 0.468715 0.465106 0.021064
C69   C     C_R   0.500000 0.881298 0.500000 0.616805
C70   C     C_R   0.531285 0.217969 0.465106 0.021065
C71   C     C_R   0.217969 0.531285 0.534893 0.021065
C72   C     C_R   0.531285 0.782031 0.534893 0.021064
C73   C     C_R   0.782031 0.468715 0.534893 0.021065
C74   C     C_R   0.468715 0.217969 0.534893 0.021065
C75   C     C_R   0.218061 0.030790 0.965702 -0.128204
C76   C     C_R   0.969210 0.218061 0.965702 -0.128204
C77   C     C_R   0.781939 0.969210 0.965702 -0.128204
C78   C     C_R   0.030789 0.781939 0.965702 -0.128204
C79   C     C_R   0.781939 0.030790 0.034298 -0.128204
C80   C     C_R   0.118702 0.500000 0.500000 0.616805
C81   C     C_R   0.030789 0.218061 0.034298 -0.128204
C82   C     C_R   0.218061 0.969210 0.034298 -0.128204
C83   C     C_R   0.969210 0.781939 0.034298 -0.128204
C84   C     C_R   0.718061 0.530790 0.465702 -0.128204
C85   C     C_R   0.469210 0.718061 0.465702 -0.128204
C86   C     C_R   0.281939 0.469210 0.465702 -0.128204
C87   C     C_R   0.530789 0.281939 0.465702 -0.128204
C88   C     C_R   0.281939 0.530789 0.534298 -0.128204
C89   C     C_R   0.530789 0.718061 0.534298 -0.128204
C90   C     C_R   0.718061 0.469210 0.534298 -0.128204
C91   C     C_R   0.500000 0.118702 0.500000 0.616806
C92   C     C_R   0.469210 0.281939 0.534298 -0.128204
C93   C     C_R   0.186471 0.000000 0.000000 -0.027530
C94   C     C_R   1.000000 0.186471 0.000000 -0.027530
C95   C     C_R   0.813529 0.000000 1.000000 -0.027530
C96   C     C_R   1.000000 0.813529 1.000000 -0.027531
C97   C     C_R   0.686471 0.500000 0.500000 -0.027530
C98   C     C_R   0.500000 0.686471 0.500000 -0.027530
C99   C     C_R   0.313529 0.500000 0.500000 -0.027530
C100  C     C_R   0.500000 0.313529 0.500000 -0.027531
C101  C     C_R   0.314450 0.000000 0.000000 -0.017312
C102  C     C_R   1.000000 0.879927 1.000000 0.567835
C103  C     C_R   0.000000 0.314450 0.000000 -0.017312
C104  C     C_R   0.685550 1.000000 1.000000 -0.017312
C105  C     C_R   1.000000 0.685550 1.000000 -0.017312
C106  C     C_R   0.814450 0.500000 0.500000 -0.017312
C107  C     C_R   0.500000 0.814450 0.500000 -0.017312
C108  C     C_R   0.185550 0.500000 0.500000 -0.017312
C109  C     C_R   0.500000 0.185550 0.500000 -0.017312
C110  C     C_2   0.312905 0.062980 0.926629 0.592421
C111  C     C_2   0.937020 0.312905 0.926629 0.592422
C112  C     C_2   0.687095 0.937020 0.926629 0.592422
Cu1   Cu    Cu3+1 0.500000 0.938190 0.000000 1.076148
Cu2   Cu    Cu3+1 1.000000 0.000000 0.042460 1.002244
Cu3   Cu    Cu3+1 0.500000 0.500000 0.457540 1.002244
Cu4   Cu    Cu3+1 0.500000 0.500000 0.542460 1.002244
Cu5   Cu    Cu3+1 0.061810 0.500000 0.000000 1.076148
Cu6   Cu    Cu3+1 0.500000 0.061810 0.000000 1.076148
Cu7   Cu    Cu3+1 0.938190 0.500000 0.000000 1.076148
Cu8   Cu    Cu3+1 1.000000 0.438190 0.500000 1.076148
Cu9   Cu    Cu3+1 0.561810 0.000000 0.500000 1.076148
Cu10  Cu    Cu3+1 0.000000 0.561810 0.500000 1.076148
Cu11  Cu    Cu3+1 0.438190 0.000000 0.500000 1.076148
Cu12  Cu    Cu3+1 1.000000 0.000000 0.957540 1.002244
H1    H     H_    0.192579 0.054197 0.939139 0.167053
H2    H     H_    0.445803 0.692579 0.439139 0.167052
H3    H     H_    0.307421 0.445803 0.439139 0.167053
H4    H     H_    0.554197 0.307421 0.439139 0.167053
H5    H     H_    0.307421 0.554197 0.560861 0.167052
H6    H     H_    0.554197 0.692578 0.560861 0.167053
H7    H     H_    0.692578 0.445803 0.560861 0.167052
H8    H     H_    0.445803 0.307421 0.560861 0.167053
H9    H     H_    0.381498 0.063511 0.880656 0.340155
H10   H     H_    0.936490 0.381497 0.880656 0.340155
H11   H     H_    0.618502 0.936488 0.880656 0.340155
H12   H     H_    0.945803 0.192579 0.939139 0.167052
H13   H     H_    0.063511 0.618503 0.880656 0.340155
H14   H     H_    0.618503 0.063510 0.119344 0.340155
H15   H     H_    0.063512 0.381498 0.119344 0.340155
H16   H     H_    0.381497 0.936489 0.119344 0.340155
H17   H     H_    0.936489 0.618502 0.119344 0.340155
H18   H     H_    0.881498 0.563511 0.380656 0.340155
H19   H     H_    0.436490 0.881497 0.380656 0.340155
H20   H     H_    0.118502 0.436488 0.380656 0.340155
H21   H     H_    0.563511 0.118503 0.380656 0.340155
H22   H     H_    0.118503 0.563510 0.619344 0.340155
H23   H     H_    0.807421 0.945803 0.939139 0.167053
H24   H     H_    0.563512 0.881498 0.619344 0.340155
H25   H     H_    0.881497 0.436489 0.619344 0.340155
H26   H     H_    0.436489 0.118502 0.619344 0.340155
H27   H     H_    0.054197 0.807421 0.939139 0.167053
H28   H     H_    0.807421 0.054197 0.060861 0.167052
H29   H     H_    0.054197 0.192578 0.060861 0.167053
H30   H     H_    0.192578 0.945803 0.060861 0.167052
H31   H     H_    0.945803 0.807421 0.060861 0.167053
H32   H     H_    0.692578 0.554197 0.439139 0.167053
O1    O     O_R   0.409820 0.947800 0.000000 -0.483296
O2    O     O_R   0.552200 0.909820 0.500000 -0.483295
O3    O     O_R   0.090180 0.552200 0.500000 -0.483297
O4    O     O_R   0.447800 0.090180 0.500000 -0.483296
O5    O     O_R   0.090180 0.447800 0.500000 -0.483296
O6    O     O_R   0.447800 0.909820 0.500000 -0.483297
O7    O     O_R   0.909820 0.552200 0.500000 -0.483296
O8    O     O_R   0.552200 0.090180 0.500000 -0.483297
O9    O     O_R   0.499990 0.947800 0.061980 -0.480210
O10   O     O_R   0.052200 0.499990 0.061980 -0.480209
O11   O     O_R   0.500010 0.052200 0.061980 -0.480210
O12   O     O_R   0.052200 0.409820 0.000000 -0.483295
O13   O     O_R   0.947800 0.500010 0.061980 -0.480210
O14   O     O_R   0.500010 0.947800 0.938020 -0.480209
O15   O     O_R   0.947800 0.499990 0.938020 -0.480210
O16   O     O_R   0.499990 0.052200 0.938020 -0.480210
O17   O     O_R   0.052200 0.500010 0.938020 -0.480210
O18   O     O_R   0.999990 0.447800 0.561980 -0.480210
O19   O     O_R   0.552200 0.999990 0.561980 -0.480209
O20   O     O_R   0.000010 0.552200 0.561980 -0.480210
O21   O     O_R   0.447800 0.000010 0.561980 -0.480210
O22   O     O_R   0.000010 0.447800 0.438020 -0.480209
O23   O     O_R   0.590180 0.052200 0.000000 -0.483297
O24   O     O_R   0.447800 0.999990 0.438020 -0.480210
O25   O     O_R   0.999990 0.552200 0.438020 -0.480210
O26   O     O_R   0.552200 0.000010 0.438020 -0.480210
O27   O     O_R   0.000010 0.909720 0.964150 -0.505659
O28   O     O_R   0.090280 0.000010 0.964150 -0.505659
O29   O     O_R   0.999990 0.090280 0.964150 -0.505659
O30   O     O_R   0.909720 0.999990 0.964150 -0.505659
O31   O     O_R   0.999990 0.909720 0.035850 -0.505659
O32   O     O_R   0.909720 0.000010 0.035850 -0.505659
O33   O     O_R   0.000010 0.090280 0.035850 -0.505659
O34   O     O_R   0.947800 0.590180 0.000000 -0.483296
O35   O     O_R   0.090280 0.999990 0.035850 -0.505659
O36   O     O_R   0.500010 0.409720 0.464150 -0.505659
O37   O     O_R   0.590280 0.500010 0.464150 -0.505659
O38   O     O_R   0.499990 0.590280 0.464150 -0.505659
O39   O     O_R   0.409720 0.499990 0.464150 -0.505659
O40   O     O_R   0.499990 0.409720 0.535850 -0.505659
O41   O     O_R   0.409720 0.500010 0.535850 -0.505659
O42   O     O_R   0.500010 0.590280 0.535850 -0.505659
O43   O     O_R   0.590280 0.499990 0.535850 -0.505659
O44   O     O_2   0.290751 0.110067 0.910925 -0.492990
O45   O     O_R   0.590180 0.947800 0.000000 -0.483296
O46   O     O_R   0.365723 0.038028 0.907068 -0.697359
O47   O     O_2   0.889933 0.290752 0.910925 -0.492990
O48   O     O_R   0.961973 0.365722 0.907067 -0.697359
O49   O     O_2   0.709249 0.889933 0.910925 -0.492990
O50   O     O_R   0.634277 0.961971 0.907068 -0.697359
O51   O     O_2   0.110067 0.709249 0.910925 -0.492991
O52   O     O_R   0.038028 0.634277 0.907067 -0.697360
O53   O     O_2   0.709248 0.110067 0.089075 -0.492990
O54   O     O_R   0.634278 0.038027 0.092933 -0.697359
O55   O     O_2   0.110067 0.290751 0.089075 -0.492990
O56   O     O_R   0.947800 0.409820 0.000000 -0.483297
O57   O     O_R   0.038029 0.365723 0.092932 -0.697359
O58   O     O_2   0.290751 0.889933 0.089075 -0.492991
O59   O     O_R   0.365723 0.961972 0.092932 -0.697360
O60   O     O_2   0.889932 0.709249 0.089075 -0.492990
O61   O     O_R   0.961972 0.634277 0.092932 -0.697359
O62   O     O_2   0.790751 0.610067 0.410925 -0.492990
O63   O     O_R   0.865723 0.538028 0.407068 -0.697359
O64   O     O_2   0.389933 0.790752 0.410925 -0.492990
O65   O     O_R   0.461973 0.865722 0.407067 -0.697359
O66   O     O_2   0.209249 0.389933 0.410925 -0.492990
O67   O     O_R   0.409820 0.052200 0.000000 -0.483296
O68   O     O_R   0.134277 0.461971 0.407068 -0.697359
O69   O     O_2   0.610067 0.209249 0.410925 -0.492991
O70   O     O_R   0.538028 0.134277 0.407067 -0.697360
O71   O     O_2   0.209248 0.610067 0.589075 -0.492990
O72   O     O_R   0.134278 0.538027 0.592933 -0.697359
O73   O     O_2   0.610067 0.790751 0.589075 -0.492990
O74   O     O_R   0.538029 0.865723 0.592932 -0.697359
O75   O     O_2   0.790751 0.389933 0.589075 -0.492991
O76   O     O_R   0.865723 0.461972 0.592932 -0.697359
O77   O     O_2   0.389932 0.209249 0.589075 -0.492990
O78   O     O_R   0.052200 0.590180 0.000000 -0.483297
O79   O     O_R   0.461972 0.134277 0.592932 -0.697359
O80   O     O_R   0.909820 0.447800 0.500000 -0.483296

loop_
_geom_bond_atom_site_label_1
_geom_bond_atom_site_label_2
_ccdc_geom_bond_type
C8    C66   S    
C81   C94   A    
C96   C102  S    
C15   O76   S    
C68   C86   A    
Cu4   O43   S    
Cu7   O34   S    
Cu11  O21   S    
C24   C33   S    
C74   C109  A    
C90   H7    S    
H19   O65   S    
C69   C107  S    
C11   C70   S    
C4    O54   S    
C52   C53   T    
Cu5   O12   S    
C18   O36   A    
Cu7   O56   S    
C29   O25   A    
C63   C81   A    
C16   C74   S    
C33   C42   T    
C28   C37   S    
C92   H8    S    
C73   C90   A    
Cu12  O28   S    
C58   O80   A    
Cu5   Cu7   S    
Cu1   O9    S    
Cu12  O29   S    
C21   C99   S    
C43   C52   S    
C12   O72   S    
C83   H31   S    
Cu11  O4    S    
C70   C87   A    
C17   O32   A    
C6    C64   S    
H26   O79   S    
C4    C62   S    
Cu6   O11   S    
C81   H29   S    
C31   C40   T    
C5    C63   S    
Cu1   O1    S    
C74   C92   A    
Cu8   O22   S    
C14   O73   D    
Cu3   O39   S    
C85   C98   A    
H16   O59   S    
C76   C94   A    
C22   O9    A    
C44   C53   S    
C26   C34   S    
Cu10  O25   S    
C6    O59   S    
C78   C96   A    
C47   C105  S    
C23   O13   A    
C46   C55   S    
C59   C111  S    
C32   C41   T    
Cu5   O78   S    
C57   C75   A    
C17   C95   S    
Cu1   O45   S    
C24   O14   A    
C28   O21   A    
C61   C78   A    
C90   C97   A    
C7    O60   D    
C10   O68   S    
C42   C51   S    
C47   O78   A    
Cu2   Cu12  S    
Cu6   O23   S    
C17   O30   A    
Cu2   O33   S    
C35   C44   T    
C71   C108  A    
H17   O61   S    
C30   O26   A    
C85   H2    S    
C36   O23   A    
C18   C100  S    
C88   H5    S    
C66   C106  A    
C58   O7    A    
C27   O18   A    
C20   O38   A    
C87   H4    S    
Cu8   Cu10  S    
C78   H27   S    
C62   C104  A    
C3    C61   S    
C25   O12   A    
C19   C97   S    
C64   C101  A    
C5    O55   D    
C60   C77   A    
C67   C85   A    
C14   O74   S    
C22   C31   S    
C20   O42   A    
Cu2   O32   S    
C110  O44   D    
C62   C79   A    
C13   O29   A    
C69   O6    A    
C111  O48   S    
Cu12  O27   S    
C63   C103  A    
C111  O47   D    
C13   O33   A    
C10   O66   D    
C25   C103  S    
C80   O3    A    
C1    O67   A    
C16   O79   S    
C27   C35   S    
Cu9   O8    S    
C18   O40   A    
C77   C95   A    
C8    O62   D    
C89   H6    S    
C71   C88   A    
C7    O61   S    
C58   C106  S    
C66   C84   A    
Cu4   O40   S    
C29   C38   S    
C25   O56   A    
C9    C67   S    
C79   C95   A    
C60   C112  S    
C70   C109  A    
C7    C65   S    
C23   O10   A    
Cu4   O42   S    
C57   C110  S    
C6    O58   D    
C72   C107  A    
Cu6   O16   S    
Cu5   O10   S    
Cu10  O3    S    
C5    O57   S    
C69   O2    A    
C13   C94   S    
C2    O28   A    
C29   O22   A    
C21   O39   A    
C86   C99   A    
C4    O53   D    
C64   C82   A    
C91   O4    A    
Cu8   O5    S    
Cu7   O13   S    
H11   O50   S    
Cu3   O36   S    
C9    O64   D    
Cu8   O18   S    
C15   C73   S    
Cu3   O38   S    
C26   O15   A    
C3    O52   S    
Cu9   O2    S    
H20   O68   S    
C91   O8    A    
H24   O74   S    
C36   O45   A    
C84   C97   A    
C37   C45   T    
C1    C101  S    
C41   C50   S    
C61   C105  A    
C11   O69   D    
C92   C100  A    
Cu3   Cu4   S    
C87   C100  A    
Cu5   O17   S    
H9    O46   S    
C48   C56   S    
C77   H23   S    
C30   O24   A    
Cu2   O35   S    
C15   O75   D    
C86   H3    S    
H25   O76   S    
C14   C72   S    
C12   C71   S    
C2    C93   S    
C34   C43   T    
C50   C55   T    
C21   O41   A    
Cu11  O24   S    
C12   O71   D    
C27   O20   A    
C112  O49   D    
C39   C48   T    
C65   C105  A    
C28   O19   A    
H10   O48   S    
Cu1   O14   S    
C10   C68   S    
C49   C56   T    
C57   C101  A    
H21   O70   S    
C80   C108  S    
C19   O43   A    
C102  O31   A    
C26   O17   A    
C36   C104  S    
C89   C98   A    
C110  O46   S    
C51   C54   T    
Cu6   O67   S    
C23   C32   S    
C91   C109  S    
C47   O34   A    
C1    O1    A    
C59   C103  A    
C80   O5    A    
C8    O63   S    
C60   C104  A    
Cu8   O80   S    
C38   C46   T    
Cu12  O30   S    
Cu4   O41   S    
C84   H32   S    
C67   C107  A    
C73   C106  A    
Cu9   O19   S    
H22   O72   S    
C16   O77   D    
H15   O57   S    
C75   C93   A    
Cu10  O20   S    
C83   C96   A    
C59   C76   A    
C3    O51   D    
C45   C54   S    
H14   O54   S    
C30   C39   S    
Cu3   O37   S    
C24   O16   A    
H18   O63   S    
Cu9   Cu11  S    
C88   C99   A    
C65   C83   A    
Cu10  O7    S    
C112  O50   S    
Cu1   Cu6   S    
C82   H30   S    
C9    O65   S    
C20   C98   S    
Cu2   O31   S    
C82   C93   A    
C11   O70   S    
Cu9   O26   S    
C72   C89   A    
C76   H12   S    
C68   C108  A    
C75   H1    S    
Cu11  O6    S    
C2    O35   A    
C102  O27   A    
C40   C49   S    
C19   O37   A    
Cu7   O15   S    
C79   H28   S    
H13   O52   S    
C22   O11   A    
