data_mof_unit_pretest_1492.cif
_audit_creation_date              2012-12-10T17:31:05-0500
_audit_creation_method            fapswitch 2.2
_symmetry_space_group_name_H-M    P1
_symmetry_Int_Tables_number       1
_space_group_crystal_system       triclinic
_cell_length_a                    12.0006
_cell_length_b                    12.898673
_cell_length_c                    15.518438
_cell_angle_alpha                 87.1864
_cell_angle_beta                  115.415704
_cell_angle_gamma                 93.296461
_cell_volume                      2165.26016761

loop_
_atom_site_label
_atom_site_type_symbol
_atom_type_description
_atom_site_fract_x
_atom_site_fract_y
_atom_site_fract_z
_atom_type_partial_charge
C1    C     C_R   0.477386 0.299474 0.498476 0.892395
C2    C     C_R   0.647956 0.970423 0.496260 -0.216857
C3    C     C_R   0.360313 0.137005 0.501736 -0.199943
C4    C     C_R   0.639746 0.862967 0.498381 -0.199918
C5    C     C_R   0.559341 0.132628 0.495404 -0.278874
C6    C     C_R   0.440750 0.867342 0.504770 -0.278531
C7    C     C_R   0.552206 0.025919 0.497891 0.184998
C8    C     C_R   0.447896 0.974049 0.502303 0.185015
C9    C     C_R   0.010447 0.610919 0.421911 0.007113
C10   C     C_R   0.991147 0.391101 0.580408 0.007002
C11   C     C_R   0.130141 0.598113 0.428649 -0.037789
C12   C     C_R   0.522626 0.700520 0.501548 0.892109
C13   C     C_R   0.870789 0.403014 0.572695 -0.036211
C14   C     C_R   0.157314 0.451684 0.532675 -0.058930
C15   C     C_R   0.842930 0.548706 0.467710 -0.057700
C16   C     C_R   0.576219 0.496279 0.680292 0.876570
C17   C     C_R   0.424132 0.506995 0.319736 0.878688
C18   C     C_R   0.037731 0.460307 0.528912 0.032310
C19   C     C_R   0.962974 0.540711 0.472154 0.035176
C20   C     C_R   0.623609 0.508969 0.783018 -0.061344
C21   C     C_R   0.379628 0.524407 0.216870 -0.060906
C22   C     C_R   0.788147 0.546732 0.937962 -0.202094
C23   C     C_R   0.651276 0.581452 0.106568 -0.228224
C24   C     C_R   0.217694 0.553443 0.058539 -0.203169
C25   C     C_R   0.749781 0.523721 0.842207 -0.198409
C26   C     C_R   0.254332 0.535112 0.156095 -0.198770
C27   C     C_R   0.537216 0.517250 0.819807 -0.259040
C28   C     C_R   0.467423 0.535624 0.180340 -0.264124
C29   C     C_R   0.572561 0.547700 0.912927 0.092435
C30   C     C_R   0.433663 0.557943 0.083903 0.092848
C31   C     C_R   0.700323 0.558144 0.973890 0.180859
C32   C     C_R   0.306343 0.562586 0.021750 0.180114
C33   C     C_R   0.483531 0.562345 0.947833 0.068526
C34   C     C_R   0.356301 0.571487 0.886869 -0.233532
C35   C     C_R   0.523349 0.567748 0.047240 0.071991
C36   C     C_R   0.738205 0.578610 0.069842 -0.238896
C37   C     C_R   0.269454 0.573682 0.923739 -0.240058
C38   C     C_R   0.535779 0.811801 0.502149 -0.057133
C39   C     C_R   0.464274 0.188177 0.497957 -0.059090
C40   C     C_R   0.352136 0.029546 0.503914 -0.216947
H1    H     H_    0.835397 0.589055 0.117325 0.141848
H2    H     H_    0.120273 0.558687 0.011732 0.128668
H3    H     H_    0.686222 0.597317 0.181362 0.137766
H4    H     H_    0.321794 0.579660 0.810280 0.151735
H5    H     H_    0.360411 0.827869 0.508263 0.161781
H6    H     H_    0.639684 0.172097 0.491918 0.162533
H7    H     H_    0.713596 0.820229 0.496243 0.165518
H8    H     H_    0.286436 0.179743 0.503828 0.165725
H9    H     H_    0.271781 0.990018 0.507169 0.142537
H10   H     H_    0.728310 0.009949 0.493003 0.142882
H11   H     H_    0.783557 0.609312 0.424535 0.148438
H12   H     H_    0.172734 0.579741 0.875144 0.146216
H13   H     H_    0.216536 0.390877 0.575596 0.150500
H14   H     H_    0.991391 0.745233 0.341268 0.179590
H15   H     H_    0.867141 0.663841 0.305181 0.172353
H16   H     H_    0.014106 0.260986 0.666886 0.180172
H17   H     H_    0.136940 0.343960 0.698682 0.180834
H18   H     H_    0.834034 0.350362 0.611458 0.129889
H19   H     H_    0.167355 0.651289 0.390558 0.129193
H20   H     H_    0.562395 0.522401 0.227845 0.161703
H21   H     H_    0.441591 0.498011 0.774789 0.157058
H22   H     H_    0.185082 0.528007 0.183595 0.153992
H23   H     H_    0.818073 0.518351 0.814514 0.154195
H24   H     H_    0.886006 0.556219 0.983678 0.128658
N1    N     N_R   0.799120 0.480200 0.517090 -0.110049
N2    N     N_R   0.200880 0.519800 0.482910 -0.109798
N3    N     N_3   0.938545 0.695482 0.365700 -0.474511
N4    N     N_3   0.065356 0.309293 0.639893 -0.474266
O1    O     O_R   0.580150 0.341050 0.504560 -0.625332
O2    O     O_R   0.419850 0.658950 0.495440 -0.626732
O3    O     O_R   0.388090 0.353760 0.493600 -0.623873
O4    O     O_R   0.611910 0.646240 0.506400 -0.625274
O5    O     O_R   0.650890 0.490020 0.640860 -0.617653
O6    O     O_R   0.349110 0.509980 0.359140 -0.616851
O7    O     O_R   0.458830 0.502730 0.629890 -0.620004
O8    O     O_R   0.541170 0.497270 0.370110 -0.619615
Zn1   Zn    Zn3+2 0.628240 0.491510 0.507320 0.939283
Zn2   Zn    Zn3+2 0.371760 0.508490 0.492680 0.939229

loop_
_geom_bond_atom_site_label_1
_geom_bond_atom_site_label_2
_ccdc_geom_bond_type
C21   C26   A    
C6    H5    S    
O2    Zn2   S    
C16   O7    A    
C24   H2    S    
C14   C18   A    
O1    Zn1   S    
C2    C7    A    
C9    N3    S    
C7    C8    A    
C13   N1    A    
C15   C19   A    
C1    O3    A    
C30   C35   A    
C24   C26   A    
C27   C29   A    
C20   C25   A    
C40   H9    S    
C34   C37   A    
C29   C33   A    
C3    H8    S    
C23   H3    S    
C18   C19   A    
C25   H23   S    
C2    H10   S    
C9    C19   A    
C22   C25   A    
C17   O8    A    
C6    C38   A    
C15   H11   S    
C27   H21   S    
C11   N2    A    
C12   O4    A    
C3    C39   A    
C36   H1    S    
C11   H19   S    
C28   H20   S    
N2    Zn2   S    
N1    Zn1   S    
C22   C31   A    
C16   O5    A    
C34   H4    S    
O8    Zn1   S    
C5    C7    A    
C37   H12   S    
C6    C8    A    
C13   H18   S    
H16   N4    S    
C1    O1    A    
C2    C4    A    
C24   C32   A    
O4    Zn1   S    
C16   C20   S    
C33   C34   A    
C14   N2    A    
C32   C37   A    
C9    C11   A    
C21   C28   A    
C4    C38   A    
C3    C40   A    
C23   C35   A    
C5    C39   A    
C17   O6    A    
H17   N4    S    
C12   O2    A    
C10   C13   A    
H15   N3    S    
H14   N3    S    
C20   C27   A    
C10   N4    S    
C5    H6    S    
C28   C30   A    
C26   H22   S    
C29   C31   A    
C30   C32   A    
C10   C18   A    
C33   C35   A    
C12   C38   S    
O7    Zn2   S    
C17   C21   S    
C1    C39   S    
C22   H24   S    
C14   H13   S    
C23   C36   A    
O6    Zn2   S    
O5    Zn1   S    
C31   C36   A    
C8    C40   A    
O3    Zn2   S    
C4    H7    S    
C15   N1    A    
