data_mof_unit_pretest_802.cif
_audit_creation_date              2012-12-10T18:00:44-0500
_audit_creation_method            fapswitch 2.2
_symmetry_space_group_name_H-M    P1
_symmetry_Int_Tables_number       1
_space_group_crystal_system       triclinic
_cell_length_a                    15.878936
_cell_length_b                    10.837567
_cell_length_c                    9.509245
_cell_angle_alpha                 90.436206
_cell_angle_beta                  89.937321
_cell_angle_gamma                 89.97429
_cell_volume                      1636.38819975

loop_
_atom_site_label
_atom_site_type_symbol
_atom_type_description
_atom_site_fract_x
_atom_site_fract_y
_atom_site_fract_z
_atom_type_partial_charge
C1    C     C_R   0.500539 0.262052 0.499199 0.855130
C2    C     C_R   0.498807 0.737805 0.500625 0.839905
C3    C     C_R   0.527645 0.933173 0.382887 -0.332208
C4    C     C_R   0.469119 0.066318 0.615766 -0.337848
C5    C     C_R   0.497192 0.871514 0.501122 -0.192886
C6    C     C_R   0.499527 0.128121 0.497318 -0.192207
C7    C     C_R   0.443894 0.570677 0.075133 -0.011199
C8    C     C_R   0.556146 0.429400 0.924877 -0.018607
C9    C     C_R   0.443903 0.570652 0.926261 0.029198
C10   C     C_R   0.556245 0.429603 0.073755 0.001410
C11   C     C_R   0.339826 0.500131 0.500071 0.797587
C12   C     C_R   0.660202 0.500257 0.499940 0.822369
C13   C     C_3   0.971570 0.431798 0.603519 0.468889
C14   C     C_3   0.028658 0.571598 0.396817 0.436906
C15   C     C_3   0.027853 0.383417 0.481438 -0.464366
C16   C     C_3   0.972343 0.620011 0.518839 -0.443271
C17   C     C_1   0.250305 0.500072 0.500371 -0.159069
C18   C     C_1   0.749777 0.501454 0.499687 -0.117373
C19   C     C_3   0.027390 0.546264 0.623032 0.351955
C20   C     C_3   0.972833 0.457171 0.377260 0.343718
C21   C     C_3   0.083377 0.499956 0.501104 -0.107183
C22   C     C_3   0.916785 0.503415 0.499170 -0.092077
C23   C     C_1   0.174891 0.499956 0.500714 0.079458
C24   C     C_1   0.825220 0.502564 0.499422 0.134142
C25   C     C_R   0.526720 0.061366 0.377828 0.507324
C26   C     C_R   0.465372 0.938359 0.617025 0.515705
Cu1   Cu    Cu3+1 0.500000 0.500020 0.640660 0.980937
Cu2   Cu    Cu3+1 0.500000 0.499980 0.359340 0.978067
H1    H     H_    0.051531 0.288028 0.464842 0.183655
H2    H     H_    0.948723 0.715438 0.535351 0.198326
H3    H     H_    0.553720 0.881865 0.294803 0.192883
H4    H     H_    0.446520 0.117126 0.706906 0.185942
H5    H     H_    0.399042 0.627453 0.131810 0.135656
H6    H     H_    0.600963 0.372561 0.868212 0.145964
H7    H     H_    0.398973 0.627111 0.870670 0.147297
H8    H     H_    0.601244 0.373147 0.129366 0.172768
N1    N     N_R   0.500020 0.500030 0.852070 -0.170792
N2    N     N_R   0.499980 0.499970 0.147930 -0.172803
O1    O     O_R   0.500000 0.319660 0.618740 -0.598242
O2    O     O_R   0.500000 0.680340 0.381260 -0.598521
O3    O     O_R   0.499990 0.319630 0.381170 -0.546676
O4    O     O_R   0.500010 0.680370 0.618830 -0.533135
O5    O     O_R   0.379080 0.500000 0.618760 -0.579801
O6    O     O_R   0.620920 0.500000 0.381240 -0.565514
O7    O     O_R   0.379080 0.499970 0.381190 -0.579691
O8    O     O_R   0.620920 0.500030 0.618810 -0.574476
O9    O     O_3   0.935067 0.364967 0.714925 -0.528351
C27   C     C_3   0.990940 0.272251 0.759299 -0.115224
H9    H     H_    0.055040 0.309080 0.780882 0.179335
H10   H     H_    0.993975 0.196348 0.680222 0.127270
H11   H     H_    0.966638 0.232677 0.858614 0.220346
O10   O     O_3   0.065308 0.638409 0.285535 -0.541298
C28   C     C_3   0.009314 0.730671 0.240427 -0.115224
H12   H     H_    0.005782 0.806686 0.319309 0.123207
H13   H     H_    0.945407 0.693378 0.218301 0.190371
H14   H     H_    0.033839 0.770219 0.141247 0.220650
S1    S     S_3+6 0.936400 0.397869 0.212751 0.056376
O11   O     O_2   0.899328 0.271757 0.233295 -0.286055
O12   O     O_2   0.870086 0.481963 0.154327 -0.241823
O13   O     O_3   0.017276 0.388915 0.098999 -0.435800
H15   H     H_    0.059546 0.336210 0.145981 0.336048
S2    S     S_3+6 0.064612 0.606325 0.786721 0.052543
O14   O     O_2   0.991750 0.619733 0.886578 -0.176832
O15   O     O_2   0.128744 0.520546 0.848731 -0.286068
O16   O     O_3   0.108650 0.745409 0.761242 -0.530773
H16   H     H_    0.155734 0.729967 0.694979 0.328468
O17   O     O_3   0.560709 0.121190 0.262729 -0.560343
C29   C     C_3   0.506715 0.104930 0.146177 -0.259337
H17   H     H_    0.531386 0.159866 0.057305 0.179020
H18   H     H_    0.441939 0.138762 0.169756 0.156499
H19   H     H_    0.504897 0.007063 0.110450 0.166991
O18   O     O_3   0.433616 0.879615 0.734223 -0.570203
C30   C     C_3   0.345553 0.869350 0.718918 -0.315753
H20   H     H_    0.319602 0.823438 0.813363 0.198150
H21   H     H_    0.328902 0.811408 0.625824 0.145854
H22   H     H_    0.315127 0.961651 0.711557 0.164710

loop_
_geom_bond_atom_site_label_1
_geom_bond_atom_site_label_2
_ccdc_geom_bond_type
C26   O18   S    
C30   H20   S    
C25   O17   S    
C28   H12   S    
C17   C23   T    
C18   C24   T    
C14   C21   S    
C19   C21   S    
Cu1   N1    S    
C16   C19   S    
S1    O12   D    
C6    C25   A    
Cu2   O2    S    
C19   S2    S    
C16   H2    S    
Cu2   O3    S    
S2    O15   D    
C27   H11   S    
C14   O10   S    
Cu1   O1    S    
C29   H17   S    
C11   O5    A    
C27   H10   S    
C7    H5    S    
C15   H1    S    
C28   H13   S    
C15   C20   S    
Cu2   O7    S    
C13   C19   S    
O17   C29   S    
C14   C20   S    
C3    C25   A    
C12   O8    A    
C13   O9    S    
S1    O13   S    
Cu2   O6    S    
C1    C6    S    
O13   H15   S    
S2    O14   D    
Cu1   O5    S    
O9    C27   S    
Cu2   N2    S    
C9    N1    A    
C8    H6    S    
C3    H3    S    
C4    H4    S    
Cu1   O8    S    
C4    C6    A    
C27   H9    S    
C20   C22   S    
C13   C15   S    
C30   H22   S    
C14   C16   S    
C11   O7    A    
C2    C5    S    
C8    N1    A    
C30   H21   S    
O10   C28   S    
C28   H14   S    
C1    O3    A    
C7    C9    A    
C11   C17   S    
C16   C22   S    
S2    O16   S    
O18   C30   S    
C3    C5    A    
C4    C26   A    
C10   N2    A    
C21   C23   S    
C12   O6    A    
Cu1   O4    S    
S1    O11   D    
C2    O4    A    
C29   H19   S    
C7    N2    A    
C13   C22   S    
C22   C24   S    
C1    O1    A    
C5    C26   A    
C2    O2    A    
C15   C21   S    
C8    C10   A    
O16   H16   S    
C12   C18   S    
Cu1   Cu2   S    
C9    H7    S    
C29   H18   S    
C10   H8    S    
C20   S1    S    
