data_mof_unit_pretest_186.cif
_audit_creation_date              2013-03-05T16:12:17-0500
_audit_creation_method            fapswitch 2.2
_symmetry_space_group_name_H-M    P1
_symmetry_Int_Tables_number       1
_space_group_crystal_system       triclinic
_cell_length_a                    8.380303
_cell_length_b                    16.114409
_cell_length_c                    26.8552
_cell_angle_alpha                 73.088847
_cell_angle_beta                  96.226846
_cell_angle_gamma                 95.208815
_cell_volume                      3442.63064388

loop_
_atom_site_label
_atom_site_type_symbol
_atom_site_description
_atom_site_fract_x
_atom_site_fract_y
_atom_site_fract_z
_atom_type_partial_charge
P1    P     P_3+3 0.610630 0.953360 0.619150 0.491624
O1    O     O_2   0.431310 0.922990 0.623550 -0.368429
O2    O     O_3   0.663280 0.983100 0.563360 -0.418440
O3    O     O_3   0.126250 0.812630 0.574830 -0.396913
O4    O     O_2   0.300815 0.764457 0.663177 -0.446152
O5    O     O_3   0.653307 0.034677 0.651290 -0.580734
O6    O     O_3   0.087428 0.645126 0.645168 -0.473618
H1    H     H_    0.201463 0.657105 0.578374 0.123731
C1    C     C_3   0.049247 0.538503 0.594027 -0.824406
H2    H     H_    0.987693 0.537625 0.555353 0.211061
H3    H     H_    0.162549 0.505987 0.597442 0.182009
P2    P     P_3+3 0.057260 0.861390 0.437850 0.467106
P3    P     P_3+3 0.504906 0.699147 0.527925 0.480152
O7    O     O_2   0.229950 0.835370 0.450810 -0.394143
O8    O     O_3   0.517580 0.797570 0.545130 -0.382256
O9    O     O_2   0.347398 0.695418 0.492842 -0.402948
O10   O     O_3   0.030791 0.914315 0.370382 -0.587488
O11   O     O_3   0.482059 0.606723 0.582299 -0.579184
C2    C     C_3   0.518697 0.627373 0.630034 0.685479
H4    H     H_    0.465661 0.688543 0.628072 0.059932
C3    C     C_3   0.445058 0.554368 0.674196 -0.708028
H5    H     H_    0.322502 0.534143 0.661171 0.208525
C4    C     C_3   0.621193 0.886108 0.387281 0.380923
H6    H     H_    0.736985 0.901731 0.407393 0.115040
H7    H     H_    0.533301 0.854607 0.416288 0.095331
C5    C     C_3   0.648012 0.824682 0.355700 -0.842553
H8    H     H_    0.743237 0.853347 0.328891 0.273591
H9    H     H_    0.684492 0.761412 0.381604 0.217501
H10   H     H_    0.535699 0.812925 0.332244 0.270802
Ba1   Ba    Ba6+2 0.337820 0.939830 0.518500 1.611799
C6    C     C_3   0.548953 0.102225 0.637135 0.876078
H11   H     H_    0.445673 0.091046 0.610202 -0.067317
C7    C     C_3   0.648822 0.184387 0.611774 -1.019289
H12   H     H_    0.758955 0.191987 0.637529 0.267643
H13   H     H_    0.580149 0.242922 0.604208 0.235982
H14   H     H_    0.685012 0.178710 0.574676 0.250266
C8    C     C_3   0.169088 0.918677 0.344086 0.795676
H15   H     H_    0.277917 0.934026 0.367668 0.027672
C9    C     C_3   0.182027 0.832876 0.331439 -0.943914
H16   H     H_    0.226792 0.782804 0.366808 0.257366
H17   H     H_    0.267559 0.841243 0.301335 0.258456
H18   H     H_    0.062690 0.809707 0.316439 0.251195
P4    P     P_3+3 0.579040 0.046590 0.380840 0.531013
O12   O     O_2   0.758370 0.077020 0.376420 -0.321896
O13   O     O_3   0.526390 0.016840 0.436620 -0.400908
O14   O     O_3   0.063420 0.187310 0.425160 -0.288148
O15   O     O_3   0.560134 0.960834 0.352565 -0.538825
P5    P     P_3+3 0.685800 0.303334 0.468882 0.518238
O16   O     O_3   0.173250 0.067890 0.537260 -0.405953
O17   O     O_3   0.672100 0.202370 0.454860 -0.365990
O18   O     O_2   0.828764 0.301629 0.510499 -0.323268
O19   O     O_3   0.751122 0.383892 0.414766 -0.422598
Ba2   Ba    Ba6+2 0.851970 0.060110 0.481480 1.658623
P6    P     P_3+3 0.124835 0.756618 0.640599 0.529819
C10   C     C_3   0.084862 0.633743 0.594684 0.410671
H19   H     H_    0.992336 0.672041 0.567566 0.125046
O20   O     O_3   0.016420 0.932050 0.462720 -0.356504
C11   C     C_3   0.072130 0.022995 0.650319 0.231083
H20   H     H_    0.946736 0.023169 0.632248 0.114419
H21   H     H_    0.139633 0.976845 0.638231 0.118614
C12   C     C_3   0.071469 0.993603 0.709882 -0.685372
H22   H     H_    0.016114 0.926767 0.722967 0.180495
H23   H     H_    0.197222 0.992968 0.727886 0.249662
P7    P     P_3+3 0.139510 0.146580 0.567837 0.464223
O21   O     O_2   0.959730 0.164640 0.549160 -0.337796
O22   O     O_3   0.148474 0.106199 0.635755 -0.560043
H24   H     H_    0.515830 0.495785 0.684278 0.234491
C13   C     C_3   0.619148 0.410320 0.378744 0.402027
H25   H     H_    0.566626 0.355979 0.363147 0.079067
H26   H     H_    0.526974 0.433948 0.397128 0.000879
C14   C     C_3   0.676898 0.485270 0.333917 -0.760189
H27   H     H_    0.767941 0.463374 0.314157 0.277148
H28   H     H_    0.575141 0.509675 0.304979 0.235344
H29   H     H_    0.731445 0.539573 0.349057 0.255335
P8    P     P_3+3 0.058340 0.237853 0.356975 0.542929
C15   C     C_3   0.172464 0.390215 0.366169 0.903561
H30   H     H_    0.272563 0.346880 0.383789 -0.112075
O23   O     O_2   0.887732 0.214925 0.335368 -0.359477
O24   O     O_3   0.042398 0.350112 0.342558 -0.546023
H31   H     H_    0.323946 0.509913 0.341565 0.236164
C16   C     C_3   0.238632 0.467494 0.323928 -1.052325
H32   H     H_    0.139379 0.507139 0.301028 0.295577
H33   H     H_    0.300362 0.443513 0.296894 0.270031
C17   C     C_R   0.481738 0.268630 0.170981 0.555685
O25   O     O_2   0.455949 0.189845 0.181302 -0.523032
N1    N     N_R   0.467702 0.310232 0.208679 -0.168091
C18   C     C_R   0.498301 0.399473 0.197022 0.542467
C19   C     C_2   0.268591 0.268112 0.273451 -0.279274
C20   C     C_3   0.197491 0.199574 0.318825 0.251989
C21   C     C_1   0.462696 0.136961 0.338866 0.271110
C22   C     C_2   0.517610 0.190511 0.295451 -0.149665
C23   C     C_2   0.416358 0.259858 0.259803 0.155795
C24   C     C_R   0.549826 0.407644 0.107630 -0.070591
C25   C     C_R   0.523516 0.316561 0.120291 -0.084831
C26   C     C_R   0.537926 0.275313 0.081803 -0.043548
C27   C     C_R   0.539538 0.449126 0.146574 -0.059943
C28   C     C_2   0.318528 0.140314 0.353774 -0.322378
H34   H     H_    0.629403 0.178812 0.282473 0.181715
H35   H     H_    0.516715 0.205498 0.089977 0.182474
C29   C     C_2   0.844033 0.841886 0.640741 -0.343745
C30   C     C_R   0.659374 0.463616 0.968402 0.068848
C31   C     C_R   0.626203 0.599425 0.990004 -0.115277
C32   C     C_R   0.664621 0.556057 0.954005 0.074537
C33   C     C_R   0.705921 0.423700 0.932219 -0.194118
C34   C     C_R   0.750124 0.472393 0.883112 -0.060653
C35   C     C_R   0.749465 0.563289 0.867481 -0.055190
C36   C     C_R   0.706836 0.605329 0.902906 -0.051203
C37   C     C_R   0.707244 0.696569 0.887261 -0.120157
C38   C     C_R   0.749309 0.744517 0.836491 0.545121
N2    N     N_R   0.782541 0.702419 0.800774 -0.180292
C39   C     C_R   0.789333 0.612648 0.816895 0.514609
C40   C     C_2   0.953015 0.747981 0.727893 -0.024462
C41   C     C_3   0.992346 0.805940 0.674808 0.143515
C42   C     C_1   0.719415 0.858182 0.662038 0.266240
C43   C     C_2   0.688111 0.811670 0.711330 -0.248067
C44   C     C_2   0.811436 0.752247 0.746729 0.018419
O26   O     O_2   0.828977 0.575227 0.787087 -0.531699
C45   C     C_R   0.609152 0.414202 0.018330 0.042596
C46   C     C_R   0.587499 0.457256 0.056077 0.095168
C47   C     C_R   0.605145 0.549417 0.042996 0.060349
C48   C     C_R   0.580449 0.322730 0.032160 -0.194636
H36   H     H_    0.045796 0.708882 0.752760 0.163514
H37   H     H_    0.784186 0.438008 0.857090 0.177461
H38   H     H_    0.713131 0.354417 0.941175 0.139654
H39   H     H_    0.585907 0.285739 0.004869 0.141866
O27   O     O_2   0.490219 0.435812 0.230588 -0.624978
C49   C     C_R   0.574409 0.539216 0.134541 -0.082814
H40   H     H_    0.190996 0.315700 0.247476 0.163695
H41   H     H_    0.575787 0.572722 0.164215 0.176048
C50   C     C_R   0.609142 0.691054 0.970986 0.294522
C51   C     C_R   0.657549 0.738065 0.921607 -0.136333
O28   O     O_2   0.757000 0.823894 0.824251 -0.521611
C52   C     C_R   0.609535 0.587854 0.084275 -0.099018
H42   H     H_    0.645567 0.807646 0.908636 0.218100
H43   H     H_    0.645182 0.655675 0.078965 0.167747
H44   H     H_    0.269573 0.086502 0.384110 0.164271
H45   H     H_    0.848055 0.861286 0.598612 0.176184
C53   C     C_2   0.393050 0.248532 0.511096 -0.433531
C54   C     C_R   0.797971 0.760614 0.487060 -0.509003
C55   C     C_2   0.258291 0.312405 0.566839 -0.176092
C56   C     C_2   0.266212 0.246986 0.545825 0.274849
C57   C     C_2   0.499968 0.317368 0.497502 0.080386
C58   C     C_3   0.461617 0.401353 0.507177 -0.059571
C59   C     C_3   0.382587 0.387331 0.558030 0.139233
C60   C     C_2   0.594929 0.470543 0.503024 -0.191844
C61   C     C_2   0.573170 0.552397 0.473206 -0.048952
C62   C     C_R   0.841076 0.619152 0.450778 0.136266
C63   C     C_R   0.700904 0.621003 0.474243 -0.079698
C64   C     C_R   0.956552 0.688360 0.444145 -0.322018
C65   C     C_R   0.931541 0.760984 0.460202 0.261402
C66   C     C_R   0.679791 0.692131 0.493297 0.304141
H46   H     H_    0.170637 0.307986 0.594585 0.149719
H47   H     H_    0.060766 0.686770 0.424158 0.197315
H48   H     H_    0.781490 0.816210 0.500432 0.179884
H49   H     H_    0.705852 0.455358 0.527834 0.206427
N3    N     N_R   0.488962 0.112249 0.684253 0.241624
O29   O     O_R   0.406907 0.178491 0.681481 -0.415783
O30   O     O_R   0.524724 0.058280 0.729823 -0.278023
N4    N     N_R   0.157397 0.989235 0.295316 0.212694
O31   O     O_R   0.028623 0.032813 0.280933 -0.359801
O32   O     O_R   0.278634 0.011022 0.266659 -0.365128
C67   C     C_2   0.948087 0.486265 0.636442 0.845665
H50   H     H_    0.994574 0.474336 0.677055 0.075976
O33   O     O_2   0.814351 0.455963 0.625726 -0.592337
C68   C     C_2   0.981246 0.053129 0.728843 0.789731
H51   H     H_    0.017623 0.121891 0.719801 0.037625
O34   O     O_2   0.867642 0.024565 0.754997 -0.482730
N5    N     N_R   0.114059 0.420510 0.406715 0.226979
O35   O     O_R   0.105110 0.367346 0.453191 -0.388347
O36   O     O_R   0.041797 0.492835 0.394595 -0.403059
N6    N     N_R   0.521437 0.735939 0.997190 0.229076
O37   O     O_R   0.566577 0.815421 0.997089 -0.356534
O38   O     O_R   0.382155 0.703158 0.013348 -0.368957
N7    N     N_R   0.692829 0.637782 0.640674 0.211427
O39   O     O_R   0.768720 0.591309 0.682973 -0.382259
O40   O     O_R   0.773390 0.697025 0.607761 -0.480561
C69   C     C_2   0.535164 0.815206 0.733539 0.811225
H52   H     H_    0.482253 0.756495 0.759192 -0.080207
O41   O     O_2   0.472050 0.883383 0.726515 -0.525569
C70   C     C_2   0.410645 0.168917 0.497048 0.740193
H53   H     H_    0.468335 0.114701 0.524618 0.009092
O42   O     O_2   0.363546 0.163995 0.453585 -0.593570
C71   C     C_2   0.436801 0.583059 0.722247 0.655085
H54   H     H_    0.542427 0.612286 0.738937 0.033494
O43   O     O_2   0.310760 0.574281 0.742676 -0.537803
C72   C     C_2   0.425419 0.575024 0.437473 0.564039
H55   H     H_    0.319586 0.530794 0.441297 0.068799
O44   O     O_2   0.421266 0.643783 0.402988 -0.605262

loop_
_geom_bond_atom_site_label_1
_geom_bond_atom_site_label_2
_geom_bond_distance
_ccdc_geom_bond_type
C10   H19   1.102451 S    
Ba1   O20   2.947360 S    
C68   H51   1.085301 S    
Ba1   O13   2.771756 S    
C62   C63   1.398479 A    
C63   C66   1.415838 A    
O6    C10   1.417689 S    
N6    O37   1.301468 A    
C51   H42   1.083637 S    
C53   C70   1.462205 S    
C42   C43   1.358433 D    
C9    H17   1.109186 S    
C48   H39   1.077472 S    
N6    O38   1.301667 A    
C5    H8    1.110306 S    
C24   C25   1.409140 A    
P3    O11   1.769387 S    
C30   C45   1.431578 A    
N3    O29   1.301460 A    
C2    C3    1.544865 S    
C17   N1    1.386780 Am   
C47   C52   1.414341 A    
C71   O43   1.220713 D    
C26   H35   1.083482 S    
C35   C36   1.408618 A    
C11   H21   1.111364 S    
C58   C59   1.531102 S    
P6    C41   1.874759 S    
C7    H14   1.102966 S    
C37   C38   1.422030 A    
C34   H37   1.083564 S    
C58   C60   1.494057 S    
P1    O1    1.543724 D    
C4    C5    1.523071 S    
C12   H23   1.110412 S    
C64   H47   1.079468 S    
N7    O39   1.300210 A    
C33   C34   1.394014 A    
C37   C51   1.401443 A    
C31   C32   1.424096 A    
C45   C46   1.419082 A    
O12   Ba2   2.785915 S    
P4    Ba2   3.390372 S    
P5    O18   1.543664 D    
C19   C23   1.357290 D    
C70   O42   1.213536 D    
C13   H25   1.113276 S    
C69   O41   1.218858 D    
P2    O10   1.762841 S    
C4    H6    1.103521 S    
C6    C7    1.521552 S    
C1    C10   1.541513 S    
Ba2   O21   2.846972 S    
C1    H2    1.111759 S    
C55   H46   1.085455 S    
C21   C28   1.323723 D    
C61   C63   1.471535 S    
O19   C13   1.397899 S    
O3    P6    1.734819 S    
C26   C48   1.396131 A    
C11   C12   1.530903 S    
N5    O36   1.302196 A    
O5    C6    1.397888 S    
O13   Ba2   2.968543 S    
C68   O34   1.220230 D    
O16   P7    1.755951 S    
C3    H5    1.100468 S    
C3    H24   1.111033 S    
C1    C67   1.498936 S    
O7    Ba1   2.846520 S    
H1    C10   1.103860 S    
C40   C41   1.511514 S    
C16   H33   1.106802 S    
C11   O22   1.397658 S    
C60   C61   1.346050 D    
C9    H18   1.110927 S    
C67   O33   1.220547 D    
C35   C39   1.418240 A    
C8    C9    1.532053 S    
Ba1   Ba2   4.555941 S    
P4    C21   1.845637 S    
C4    O15   1.391517 S    
P1    O5    1.759525 S    
O17   Ba2   2.734720 S    
P2    C65   1.830520 S    
O4    P6    1.541198 D    
C29   C42   1.324174 D    
C17   O25   1.222225 D    
P3    C66   1.847279 S    
C53   C57   1.349604 D    
C9    H16   1.107147 S    
C14   H28   1.106841 S    
Ba2   O20   2.771901 S    
N1    C18   1.385763 Am   
O11   C2    1.411598 S    
O10   C8    1.407377 S    
C54   H48   1.082161 S    
C11   H20   1.108560 S    
P2    Ba1   3.430042 S    
C16   H32   1.111362 S    
N2    C39   1.388733 Am   
C27   C49   1.402831 A    
C20   C28   1.506516 S    
P1    O2    1.535054 S    
C45   C48   1.415979 A    
P7    O22   1.744874 S    
O2    Ba1   2.967684 S    
N3    O30   1.300917 A    
P4    O12   1.544053 D    
C49   H41   1.083478 S    
C71   H54   1.080419 S    
C40   H36   1.085835 S    
C8    H15   1.104028 S    
C1    H3    1.108155 S    
N4    O31   1.302414 A    
C50   N6    1.436458 S    
C36   C37   1.406523 A    
C18   C27   1.419795 A    
C38   O28   1.222023 D    
N4    O32   1.302088 A    
C7    H12   1.111540 S    
P5    C57   1.868657 S    
C25   C26   1.402173 A    
C17   C25   1.419450 A    
C55   C56   1.342060 D    
P5    O17   1.764987 S    
P4    O13   1.534808 S    
C43   C69   1.483479 S    
P2    O20   1.556438 S    
N5    O35   1.297657 A    
Ba1   O16   2.772489 S    
P2    O7    1.518990 D    
C30   C33   1.414747 A    
P3    O8    1.767872 S    
P1    C42   1.873069 S    
C72   O44   1.220489 D    
N2    C44   1.474067 S    
C40   C44   1.354092 D    
C31   C47   1.437796 A    
C70   H53   1.080695 S    
O8    Ba1   2.734158 S    
C67   H50   1.085243 S    
C30   C32   1.423784 A    
O14   P8    1.771967 S    
C3    C71   1.501986 S    
C62   C64   1.392061 A    
C61   C72   1.485797 S    
C6    H11   1.102925 S    
C29   C41   1.514300 S    
C49   C52   1.397123 A    
H31   C16   1.108559 S    
C53   C56   1.482235 S    
C15   C16   1.527855 S    
C14   H29   1.110875 S    
C46   C47   1.420825 A    
C33   H38   1.077417 S    
C24   C27   1.408824 A    
C34   C35   1.401770 A    
C54   C65   1.394525 A    
C5    H9    1.102152 S    
O6    P6    1.766087 S    
C39   O26   1.220535 D    
O1    Ba1   2.785686 S    
P7    O21   1.561057 D    
C8    N4    1.464188 S    
C2    H4    1.102809 S    
C55   C59   1.502569 S    
C50   C51   1.404782 A    
C2    N7    1.460228 S    
C14   H27   1.110787 S    
C19   H40   1.085560 S    
N1    C23   1.464720 S    
C64   C65   1.398996 A    
C15   H30   1.115013 S    
O2    Ba2   2.772375 S    
C21   C22   1.332195 D    
P4    O15   1.748131 S    
C13   C14   1.522030 S    
O16   Ba2   2.946500 S    
O14   Ba2   2.783416 S    
C54   C66   1.398833 A    
P1    Ba1   3.390023 S    
C7    H13   1.106299 S    
C15   N5    1.460072 S    
C12   C68   1.500153 S    
C4    H7    1.110653 S    
C22   H34   1.084369 S    
C12   H22   1.105944 S    
P8    O23   1.538257 D    
N7    O40   1.292262 A    
C29   H45   1.086043 S    
P8    C20   1.883461 S    
C60   H49   1.086263 S    
C6    N3    1.466844 S    
P5    O19   1.744383 S    
C15   O24   1.402968 S    
C19   C20   1.521417 S    
C5    H10   1.107714 S    
C13   H26   1.109452 S    
C69   H52   1.084997 S    
P7    C56   1.833730 S    
P3    O9    1.543482 D    
C52   H43   1.078561 S    
C57   C58   1.517929 S    
C32   C36   1.434969 A    
C24   C46   1.435487 A    
C28   H44   1.086676 S    
C72   H55   1.080534 S    
C38   N2    1.388726 Am   
P8    O24   1.750828 S    
C18   O27   1.219676 D    
O3    Ba1   2.784154 S    
C22   C23   1.502933 S    
C43   C44   1.525040 S    
C31   C50   1.430116 A    
