data_mof_unit_pretest_475.cif
_audit_creation_date              2012-12-11T15:29:36-0500
_audit_creation_method            fapswitch 2.2
_symmetry_space_group_name_H-M    P1
_symmetry_Int_Tables_number       1
_space_group_crystal_system       triclinic
_cell_length_a                    21.449678
_cell_length_b                    7.241382
_cell_length_c                    14.757417
_cell_angle_alpha                 90.476622
_cell_angle_beta                  74.406361
_cell_angle_gamma                 89.866886
_cell_volume                      2207.7289179

loop_
_atom_site_label
_atom_site_type_symbol
_atom_type_description
_atom_site_fract_x
_atom_site_fract_y
_atom_site_fract_z
_atom_type_partial_charge
O1    O     O_R   0.464160 0.506670 0.130070 -0.529851
O2    O     O_R   0.535840 0.006670 0.869930 -0.531570
O3    O     O_R   0.589710 0.179080 0.006710 -0.505894
O4    O     O_R   0.410290 0.679080 0.993290 -0.505917
C1    C     C_R   0.616454 0.344175 0.001146 0.723453
C2    C     C_R   0.383595 0.844484 0.998612 0.725103
O5    O     O_R   0.467940 0.177220 0.138010 -0.547442
O6    O     O_R   0.532060 0.677220 0.861990 -0.546526
O7    O     O_R   0.413200 0.002810 0.002170 -0.550651
O8    O     O_R   0.586800 0.502810 0.997830 -0.550338
C3    C     C_R   0.456103 0.346479 0.174376 0.696583
C4    C     C_R   0.543944 0.844545 0.825564 0.694847
O9    O     O_3   0.482180 0.337850 0.955280 -0.379277
O10   O     O_3   0.517820 0.837850 0.044720 -0.379152
V1    V     V_3+5 0.503310 0.064600 0.008300 1.471859
V2    V     V_3+5 0.496690 0.564600 0.991700 1.474645
C5    C     C_R   0.571926 0.847993 0.723875 -0.032558
C6    C     C_R   0.428039 0.359383 0.275923 -0.033889
C7    C     C_R   0.928571 0.869617 0.276478 -0.024448
C8    C     C_R   0.071537 0.359025 0.723820 -0.025063
C9    C     C_R   0.560769 0.803200 0.566946 -0.154961
C10   C     C_R   0.438257 0.438823 0.430233 -0.154337
C11   C     C_R   0.533019 0.814792 0.663522 -0.175479
C12   C     C_R   0.466319 0.412346 0.334445 -0.178551
C13   C     C_R   0.638806 0.868650 0.687874 -0.216501
C14   C     C_R   0.361504 0.333344 0.312939 -0.195902
C15   C     C_R   0.668652 0.853022 0.590050 0.076959
C16   C     C_R   0.331339 0.362779 0.409860 0.076462
C17   C     C_R   0.627987 0.820573 0.529882 0.138175
C18   C     C_R   0.371332 0.416011 0.468182 0.134621
C19   C     C_R   0.737185 0.865811 0.550255 0.059300
C20   C     C_R   0.263085 0.343831 0.450391 0.060329
C21   C     C_R   0.763647 0.847187 0.450586 0.059046
C22   C     C_R   0.236174 0.378319 0.548893 0.056339
C23   C     C_R   0.720769 0.815792 0.394173 -0.148504
C24   C     C_R   0.278353 0.430885 0.603470 -0.149742
C25   C     C_R   0.654517 0.803108 0.433219 -0.195140
C26   C     C_R   0.344381 0.448675 0.563770 -0.193389
C27   C     C_R   0.780137 0.895595 0.606735 -0.198112
C28   C     C_R   0.220847 0.292176 0.395746 -0.182240
C29   C     C_R   0.846410 0.908444 0.567593 -0.207972
C30   C     C_R   0.154829 0.273835 0.435538 -0.203929
C31   C     C_R   0.872850 0.892934 0.470782 0.143901
C32   C     C_R   0.127954 0.305247 0.531264 0.143704
C33   C     C_R   0.832113 0.861242 0.410664 0.081364
C34   C     C_R   0.167982 0.358413 0.589534 0.080813
C35   C     C_R   0.940028 0.911388 0.433496 -0.161238
C36   C     C_R   0.061086 0.281286 0.569422 -0.158485
C37   C     C_R   0.967613 0.901715 0.336779 -0.177173
C38   C     C_R   0.033160 0.306390 0.665369 -0.181475
C39   C     C_R   0.861776 0.848028 0.312702 -0.168301
C40   C     C_R   0.137959 0.386375 0.686588 -0.167201
H1    H     H_    0.623670 0.778087 0.387026 0.124066
H2    H     H_    0.374693 0.489842 0.608528 0.124030
H3    H     H_    0.834602 0.826314 0.261923 0.111882
H4    H     H_    0.164632 0.424481 0.736098 0.110816
H5    H     H_    0.019312 0.920480 0.308879 0.092982
H6    H     H_    0.981758 0.283330 0.694219 0.097206
H7    H     H_    0.877326 0.932330 0.613798 0.117550
H8    H     H_    0.124466 0.232985 0.390815 0.110844
H9    H     H_    0.529724 0.777558 0.521151 0.112962
H10   H     H_    0.468793 0.480076 0.474596 0.113784
H11   H     H_    0.481285 0.796398 0.691326 0.103196
H12   H     H_    0.517768 0.434764 0.305748 0.104551
H13   H     H_    0.665884 0.891832 0.738662 0.132707
H14   H     H_    0.334882 0.294892 0.263407 0.116026
H15   H     H_    0.736602 0.799247 0.318951 0.140081
H16   H     H_    0.262120 0.460479 0.677675 0.140926
H17   H     H_    0.764347 0.910188 0.682075 0.143032
H18   H     H_    0.237057 0.263931 0.321427 0.125813
H19   H     H_    0.971163 0.936283 0.479237 0.113092
H20   H     H_    0.030505 0.240199 0.525094 0.113393
C41   C     C_3   0.228098 0.768972 0.911243 0.417859
C42   C     C_3   0.771886 0.277477 0.089573 0.422594
H21   H     H_    0.211957 0.623542 0.908269 0.101382
H22   H     H_    0.788005 0.132588 0.094719 0.102538
C43   C     C_3   0.301312 0.768480 0.908423 -0.375749
C44   C     C_3   0.698704 0.276520 0.092232 -0.373320
H23   H     H_    0.329314 0.848522 0.846896 0.166746
H24   H     H_    0.670643 0.361863 0.152587 0.165580
H25   H     H_    0.319975 0.624159 0.898446 0.162638
H26   H     H_    0.680027 0.133036 0.104097 0.163604
H27   H     H_    0.182047 0.601131 0.076295 0.225479
H28   H     H_    0.817896 0.094575 0.927071 0.225984
C45   C     C_3   0.197396 0.745362 0.085197 -0.491458
C46   C     C_3   0.802682 0.237846 0.916051 -0.490486
C47   C     C_3   0.216377 0.065112 0.005309 0.374753
C48   C     C_3   0.783973 0.564634 0.991272 0.373970
C49   C     C_3   0.186847 0.864976 0.003223 -0.149810
C50   C     C_3   0.813271 0.365076 0.996324 -0.152518
H29   H     H_    0.218798 0.123531 0.934902 0.153482
H30   H     H_    0.781561 0.629646 0.060778 0.150720
C51   C     C_3   0.312249 0.852609 0.000395 -0.115172
C52   C     C_3   0.687868 0.352145 0.999155 -0.114650
C53   C     C_3   0.269807 0.744351 0.085856 0.523263
C54   C     C_3   0.730289 0.236400 0.915275 0.516582
C55   C     C_3   0.287620 0.055979 0.009393 -0.458650
C56   C     C_3   0.712713 0.554768 0.987279 -0.454628
H31   H     H_    0.317893 0.139240 0.950803 0.170839
H32   H     H_    0.682535 0.643296 0.044663 0.172458
H33   H     H_    0.293568 0.119599 0.075293 0.190985
H34   H     H_    0.706802 0.612344 0.920538 0.190654
H35   H     H_    0.166291 0.789249 0.154640 0.110581
H36   H     H_    0.833864 0.275214 0.846030 0.108190
H37   H     H_    0.274361 0.809275 0.152340 0.043146
H38   H     H_    0.725809 0.295195 0.847904 0.041940
O11   O     O_R   0.913210 0.208550 0.002110 -0.547741
O12   O     O_R   0.086790 0.708550 0.997890 -0.547161
O13   O     O_R   0.032060 0.539960 0.861980 -0.539676
O14   O     O_R   0.967940 0.039960 0.138020 -0.539144
C57   C     C_R   0.043688 0.371601 0.825414 0.674565
C58   C     C_R   0.956306 0.873479 0.174684 0.674117
O15   O     O_R   0.910290 0.538020 0.993280 -0.518370
O16   O     O_R   0.089710 0.038020 0.006720 -0.517721
O17   O     O_R   0.964160 0.712340 0.130090 -0.535301
O18   O     O_R   0.035840 0.212340 0.869910 -0.534136
C59   C     C_R   0.884306 0.370426 0.996548 0.747990
C60   C     C_R   0.115756 0.870265 0.003225 0.748938
O19   O     O_3   0.017820 0.379210 0.044690 -0.374889
O20   O     O_3   0.982180 0.879210 0.955310 -0.375656
V3    V     V_3+5 0.996690 0.652500 0.991710 1.499807
V4    V     V_3+5 0.003310 0.152500 0.008290 1.502350
F1    F     F_    0.219381 0.856323 0.832202 -0.707596
F2    F     F_    0.780498 0.372377 0.167341 -0.708413
F3    F     F_    0.291036 0.562991 0.084604 -0.683700
F4    F     F_    0.708995 0.055157 0.919002 -0.688936
O21   O     O_3   0.179110 0.199848 0.068232 -0.537654
C61   C     C_3   0.162243 0.149869 0.163816 -0.154167
H39   H     H_    0.201627 0.078938 0.185590 0.096400
H40   H     H_    0.117291 0.066737 0.180651 0.108230
H41   H     H_    0.151103 0.278160 0.206784 0.151558
O22   O     O_3   0.821483 0.693306 0.926419 -0.538376
C62   C     C_3   0.838277 0.634564 0.831607 -0.150303
H42   H     H_    0.798760 0.561948 0.810858 0.102122
H43   H     H_    0.883122 0.549779 0.815997 0.110112
H44   H     H_    0.849612 0.758757 0.786765 0.147994

loop_
_geom_bond_atom_site_label_1
_geom_bond_atom_site_label_2
_ccdc_geom_bond_type
C42   F2    S    
C3    C6    S    
O17   V3    S    
C47   H29   S    
C15   C17   A    
C21   C33   A    
O1    C3    A    
O12   V3    S    
O2    C4    A    
C61   H39   S    
C2    O7    A    
C47   O21   S    
C1    C52   S    
C35   C37   A    
C52   C56   S    
C7    C58   S    
O5    C3    A    
C41   H21   S    
C5    C11   A    
C28   H18   S    
C6    C12   A    
C23   C25   A    
H28   C46   S    
O13   C57   A    
C44   H24   S    
C33   C39   A    
C34   C40   A    
C37   H5    S    
C18   C26   A    
C43   C51   S    
C7    C37   A    
C8    C38   A    
C53   H37   S    
C48   H30   S    
O22   C62   S    
C41   F1    S    
C6    C14   A    
C4    C5    S    
C62   H44   S    
C19   C21   A    
C57   O18   A    
C22   C34   A    
C23   H15   S    
C9    H9    S    
C45   H35   S    
C25   H1    S    
C36   C38   A    
C46   H36   S    
O6    V2    S    
C29   C31   A    
C30   C32   A    
C36   H20   S    
C55   H31   S    
C32   C34   A    
C43   H23   S    
C15   C19   A    
C14   H14   S    
C50   C59   S    
O12   C60   A    
C16   C20   A    
C13   H13   S    
C29   H7    S    
C27   C29   A    
C46   C50   S    
C30   H8    S    
C45   C49   S    
O5    V1    S    
C56   H34   S    
C9    C17   A    
C38   H6    S    
O4    V2    S    
C10   H10   S    
C8    C57   S    
C44   H26   S    
C26   H2    S    
C43   H25   S    
O6    C4    A    
C2    C51   S    
C27   H17   S    
C54   F4    S    
O1    V2    S    
C52   C54   S    
O2    V1    S    
C31   C33   A    
C35   H19   S    
O16   C60   A    
C46   C54   S    
O15   C59   A    
O4    C2    A    
C53   F3    S    
H27   C45   S    
C48   C50   S    
C56   H32   S    
C9    C11   A    
C62   H42   S    
C10   C12   A    
C48   O22   S    
O21   C61   S    
C61   H41   S    
C51   C55   S    
O3    V1    S    
O20   V3    S    
O18   V4    S    
O19   V4    S    
C54   H38   S    
C10   C18   A    
C28   C30   A    
O3    C1    A    
C61   H40   S    
C24   H16   S    
C13   C15   A    
C14   C16   A    
C5    C13   A    
C42   C50   S    
C16   C18   A    
C42   H22   S    
O7    V1    S    
C41   C49   S    
C1    O8    A    
C8    C40   A    
C32   C36   A    
O8    V2    S    
O14   V4    S    
C24   C26   A    
C45   C53   S    
O13   V3    S    
C44   C52   S    
C11   H11   S    
C21   C23   A    
C22   C24   A    
C19   C27   A    
C12   H12   S    
C39   H3    S    
C20   C28   A    
O14   C58   A    
O16   V4    S    
C48   C56   S    
C7    C39   A    
O15   V3    S    
C49   C60   S    
C51   C53   S    
C42   C44   S    
O9    V2    S    
C17   C25   A    
C62   H43   S    
C47   C49   S    
C41   C43   S    
O10   V1    S    
O11   V4    S    
C31   C35   A    
O11   C59   A    
C58   O17   A    
C55   H33   S    
C40   H4    S    
C20   C22   A    
C47   C55   S    
