data_mof_unit_pretest_1583.cif
_audit_creation_date              2012-12-10T18:08:16-0500
_audit_creation_method            fapswitch 2.2
_symmetry_space_group_name_H-M    P1
_symmetry_Int_Tables_number       1
_space_group_crystal_system       triclinic
_cell_length_a                    18.752059
_cell_length_b                    18.757442
_cell_length_c                    18.610517
_cell_angle_alpha                 109.430574
_cell_angle_beta                  109.290849
_cell_angle_gamma                 109.448957
_cell_volume                      5054.23576033

loop_
_atom_site_label
_atom_site_type_symbol
_atom_type_description
_atom_site_fract_x
_atom_site_fract_y
_atom_site_fract_z
_atom_type_partial_charge
C1    C     C_R   0.379064 0.498968 0.379773 0.879247
C2    C     C_R   0.768253 0.831303 0.535863 0.024021
C3    C     C_3   0.754869 0.902764 0.583060 -0.235387
C4    C     C_3   0.684365 0.832712 0.585113 -0.472733
C5    C     C_R   0.230542 0.420396 0.254213 0.188421
C6    C     C_R   0.167355 0.422365 0.190964 -0.170980
C7    C     C_R   0.185791 0.498976 0.186577 -0.070558
C8    C     C_R   0.266685 0.574601 0.245685 -0.180929
C9    C     C_R   0.329398 0.573880 0.309792 -0.232718
C10   C     C_R   0.311731 0.497176 0.313432 -0.009628
C11   C     C_R   0.316879 0.242511 0.495908 -0.192736
C12   C     C_R   0.620520 0.619912 0.500037 0.899548
C13   C     C_R   0.254743 0.180216 0.498572 -0.197620
C14   C     C_R   0.184994 0.189498 0.501968 -0.074156
C15   C     C_R   0.176957 0.262097 0.503927 -0.046449
C16   C     C_R   0.239953 0.325304 0.501233 -0.049000
C17   C     C_R   0.310093 0.314889 0.497825 -0.077426
C18   C     C_R   0.739376 0.468973 0.667748 -0.178879
C19   C     C_R   0.803775 0.470751 0.732642 -0.239316
C20   C     C_R   0.814870 0.503304 0.817055 0.001297
C21   C     C_R   0.762850 0.536092 0.838549 0.191155
C22   C     C_R   0.698655 0.534422 0.772813 -0.185689
C23   C     C_R   0.620394 0.500117 0.620650 0.880210
C24   C     C_R   0.686903 0.500836 0.687862 -0.071500
C25   C     C_R   0.999905 0.879825 0.379527 0.848620
C26   C     C_R   0.880497 0.880195 0.500064 0.892341
C27   C     C_R   0.000125 0.120235 0.620398 0.862407
C28   C     C_R   0.119854 0.121246 0.500831 0.872691
C29   C     C_R   0.999686 0.620017 0.120056 0.847762
C30   C     C_R   0.120118 0.499893 0.120423 0.874379
C31   C     C_R   0.000160 0.380053 0.879892 0.857163
C32   C     C_R   0.880248 0.500891 0.880790 0.864158
C33   C     C_R   0.988856 0.815342 0.235950 -0.175583
C34   C     C_R   0.378444 0.380072 0.498910 0.872677
C35   C     C_R   0.989989 0.751927 0.172507 -0.189746
C36   C     C_R   0.998800 0.685565 0.185591 -0.002637
C37   C     C_R   0.007349 0.682190 0.261591 -0.176987
C38   C     C_R   0.008985 0.747089 0.326251 -0.186099
C39   C     C_R   0.999165 0.813122 0.312944 -0.011934
C40   C     C_R   0.920984 0.179441 0.677892 -0.163577
C41   C     C_R   0.920981 0.242901 0.742392 -0.177808
C42   C     C_R   0.000326 0.314172 0.813609 -0.009887
C43   C     C_R   0.079685 0.321986 0.821658 -0.177775
C44   C     C_R   0.079666 0.257081 0.758536 -0.173765
C45   C     C_R   0.707114 0.770393 0.537471 0.112389
C46   C     C_R   0.000309 0.186442 0.686695 0.002366
C47   C     C_R   0.687486 0.684424 0.499782 -0.147814
C48   C     C_R   0.734714 0.661686 0.459896 -0.220912
C49   C     C_R   0.799546 0.725253 0.458521 0.179721
C50   C     C_R   0.815994 0.812128 0.497635 -0.090155
H1    H     H_    0.721524 0.595008 0.429950 0.178151
H2    H     H_    0.392124 0.632672 0.355894 0.143527
H3    H     H_    0.371100 0.234967 0.493690 0.154946
H4    H     H_    0.260325 0.124017 0.496739 0.153240
H5    H     H_    0.731128 0.443519 0.602326 0.163141
H6    H     H_    0.844353 0.445812 0.716964 0.144959
H7    H     H_    0.657682 0.559037 0.787987 0.164014
H8    H     H_    0.981629 0.866765 0.225884 0.148307
H9    H     H_    0.982930 0.753774 0.113051 0.144209
H10   H     H_    0.014439 0.630569 0.271335 0.143343
H11   H     H_    0.016807 0.745286 0.385855 0.151093
H12   H     H_    0.859566 0.124351 0.622188 0.136127
H13   H     H_    0.859573 0.237267 0.736287 0.142485
H14   H     H_    0.141065 0.377217 0.877253 0.145388
H15   H     H_    0.141042 0.262491 0.764777 0.144559
H16   H     H_    0.729580 0.929827 0.542358 0.152834
H17   H     H_    0.699917 0.840978 0.651455 0.209335
H18   H     H_    0.617203 0.817689 0.543885 0.188166
H19   H     H_    0.104288 0.364117 0.144463 0.155943
H20   H     H_    0.280854 0.634237 0.242911 0.160099
O1    O     O_R   0.408340 0.551690 0.460080 -0.617136
O2    O     O_R   0.948260 0.908480 0.356680 -0.620771
O3    O     O_R   0.960120 0.908380 0.551680 -0.613059
O4    O     O_R   0.856660 0.908440 0.448310 -0.626177
O5    O     O_R   0.051740 0.091590 0.643330 -0.619282
O6    O     O_R   0.948290 0.091650 0.539960 -0.620955
O7    O     O_R   0.143330 0.091630 0.551690 -0.623865
O8    O     O_R   0.039880 0.091690 0.448320 -0.614234
O9    O     O_R   0.948270 0.540000 0.091680 -0.621497
O10   O     O_R   0.051700 0.643420 0.091650 -0.619350
O11   O     O_R   0.039910 0.448390 0.091720 -0.624645
O12   O     O_R   0.408400 0.448280 0.356690 -0.621446
O13   O     O_R   0.143340 0.551810 0.091690 -0.624504
O14   O     O_R   0.948300 0.356760 0.908530 -0.620259
O15   O     O_R   0.051730 0.460180 0.908500 -0.621050
O16   O     O_R   0.856660 0.448370 0.908490 -0.616081
O17   O     O_R   0.960090 0.551790 0.908450 -0.618940
O18   O     O_R   0.591580 0.643330 0.551700 -0.621388
O19   O     O_R   0.591640 0.539920 0.448310 -0.630193
O20   O     O_R   0.591600 0.551720 0.643310 -0.627632
O21   O     O_R   0.591660 0.448310 0.539920 -0.628158
O22   O     O_R   0.408360 0.460080 0.551690 -0.613069
O23   O     O_R   0.408420 0.356670 0.448300 -0.623893
O24   O     O_R   0.051710 0.908420 0.460050 -0.626247
Zn1   Zn    Zn3+2 0.499960 0.569050 0.569040 0.967819
Zn2   Zn    Zn3+2 0.500040 0.430950 0.430960 0.951199
Zn3   Zn    Zn3+2 0.069080 0.999990 0.569020 0.967850
Zn4   Zn    Zn3+2 0.930920 0.000070 0.430980 0.969468
Zn5   Zn    Zn3+2 0.930940 0.431040 0.000110 0.963201
Zn6   Zn    Zn3+2 0.069060 0.569140 0.000070 0.962169
C51   C     C_1   0.106265 0.273162 0.511636 0.178814
N1    N     N_1   0.049988 0.281997 0.517894 -0.188583
C52   C     C_1   0.231048 0.398726 0.499211 0.172510
N2    N     N_1   0.223896 0.457173 0.497471 -0.186518
C53   C     C_3   0.774254 0.574438 0.929561 -0.918049
H21   H     H_    0.829791 0.577223 0.978688 0.240295
H22   H     H_    0.786034 0.642103 0.952151 0.238337
H23   H     H_    0.714094 0.534853 0.928079 0.249336
C54   C     C_3   0.847220 0.697353 0.414022 -0.899011
H24   H     H_    0.894349 0.751284 0.413352 0.232724
H25   H     H_    0.883218 0.671731 0.448458 0.242928
H26   H     H_    0.799651 0.645093 0.344860 0.242288
C55   C     C_1   0.831477 0.968870 0.670024 0.204609
N3    N     N_1   0.891808 0.020889 0.738418 -0.195500
C56   C     C_3   0.210092 0.337735 0.258968 -0.892942
H27   H     H_    0.141390 0.285832 0.210502 0.236849
H28   H     H_    0.252750 0.312824 0.245006 0.256728
H29   H     H_    0.220681 0.350766 0.325386 0.233254

loop_
_geom_bond_atom_site_label_1
_geom_bond_atom_site_label_2
_ccdc_geom_bond_type
C19   H6    S    
C6    H19   S    
C33   H8    S    
C31   O15   A    
C31   C42   S    
C41   C42   A    
C35   C36   A    
C34   O23   A    
C22   H7    S    
C7    C8    A    
O4    Zn4   S    
O2    Zn4   S    
O3    Zn3   S    
C53   H22   S    
C29   C36   S    
C1    O1    A    
C18   C24   A    
O9    Zn5   S    
C36   C37   A    
C55   N3    T    
C54   H25   S    
C5    C6    A    
O1    Zn1   S    
O6    Zn4   S    
C56   H27   S    
O5    Zn3   S    
C26   O3    A    
C40   H12   S    
C35   H9    S    
C18   C19   A    
C30   O13   A    
C2    C50   A    
C33   C35   A    
O21   Zn2   S    
C48   H1    S    
C11   C17   A    
C19   C20   A    
C8    C9    A    
C56   H28   S    
O8    Zn4   S    
C23   C24   S    
O7    Zn3   S    
C28   O8    A    
C9    C10   A    
C11   H3    S    
C38   H11   S    
O18   Zn1   S    
C25   O24   A    
C7    C30   S    
C21   C22   A    
C5    C56   S    
C44   H15   S    
C9    H2    S    
C12   C47   S    
C27   O5    A    
C44   C46   A    
C43   H14   S    
C4    C45   S    
C45   C47   A    
C2    C45   A    
C53   H23   S    
O12   Zn2   S    
C15   C16   A    
C12   O18   A    
C51   N1    T    
C12   O19   A    
O20   Zn1   S    
C3    C55   S    
C54   H26   S    
C4    H18   S    
C16   C17   A    
O11   Zn5   S    
O24   Zn3   S    
C1    O12   A    
C32   O17   A    
O22   Zn1   S    
C31   O14   A    
C40   C46   A    
C43   C44   A    
C37   C38   A    
C28   O7    A    
C16   C52   S    
C47   C48   A    
C29   O9    A    
C56   H29   S    
C32   O16   A    
C23   O20   A    
C25   O2    A    
C33   C39   A    
C15   C51   S    
O16   Zn5   S    
C18   H5    S    
C27   C46   S    
C40   C41   A    
O23   Zn2   S    
O13   Zn6   S    
C23   O21   A    
C3    H16   S    
C42   C43   A    
C41   H13   S    
C27   O6    A    
C49   C54   S    
O17   Zn6   S    
C20   C32   S    
C48   C49   A    
O14   Zn5   S    
C1    C10   S    
C4    H17   S    
C6    C7    A    
C53   H21   S    
C13   H4    S    
C8    H20   S    
C30   O11   A    
C26   C50   S    
C2    C3    S    
C5    C10   A    
O15   Zn6   S    
C54   H24   S    
C25   C39   S    
C11   C13   A    
C38   C39   A    
C29   O10   A    
O19   Zn2   S    
C26   O4    A    
C21   C53   S    
C22   C24   A    
C34   O22   A    
C37   H10   S    
C20   C21   A    
C49   C50   A    
C17   C34   S    
C52   N2    T    
C14   C15   A    
C14   C28   S    
C13   C14   A    
O10   Zn6   S    
C3    C4    S    
