data_mof_unit_pretest_1500.cif
_audit_creation_date              2012-12-10T17:02:15-0500
_audit_creation_method            fapswitch 2.2
_symmetry_space_group_name_H-M    P1
_symmetry_Int_Tables_number       1
_space_group_crystal_system       triclinic
_cell_length_a                    10.660292
_cell_length_b                    10.571591
_cell_length_c                    10.013992
_cell_angle_alpha                 89.312249
_cell_angle_beta                  90.040371
_cell_angle_gamma                 90.467065
_cell_volume                      1128.4203122

loop_
_atom_site_label
_atom_site_type_symbol
_atom_type_description
_atom_site_fract_x
_atom_site_fract_y
_atom_site_fract_z
_atom_type_partial_charge
C1    C     C_R   0.518986 0.263575 0.500402 0.873155
C2    C     C_R   0.067247 0.607654 0.575337 0.098355
C3    C     C_R   0.128420 0.515052 0.499260 -0.096679
C4    C     C_R   0.063194 0.428898 0.420972 -0.194210
C5    C     C_R   0.935133 0.429159 0.421264 -0.157645
C6    C     C_R   0.871977 0.515215 0.500278 -0.095235
C7    C     C_2   0.584218 0.928650 0.407755 -0.119234
C8    C     C_2   0.504643 0.872955 0.493498 -0.300716
C9    C     C_2   0.586287 0.065441 0.393766 0.324399
C10   C     C_2   0.572044 0.137106 0.504584 0.092018
C11   C     C_2   0.570062 0.575380 0.924002 -0.089814
C12   C     C_R   0.260517 0.504432 0.499908 0.860453
C13   C     C_2   0.574958 0.570459 0.074221 -0.067221
C14   C     C_R   0.498955 0.738526 0.498904 0.887782
C15   C     C_R   0.739568 0.505476 0.500128 0.868097
C16   C     C_R   0.133449 0.701966 0.646619 -0.172810
C17   C     C_R   0.069543 0.789930 0.722831 -0.137950
C18   C     C_R   0.939277 0.788029 0.726512 -0.067542
C19   C     C_R   0.872242 0.699619 0.652036 -0.155171
C20   C     C_R   0.935591 0.607127 0.576918 0.074948
H1    H     H_    0.111743 0.359045 0.362191 0.173306
H2    H     H_    0.629541 0.644518 0.873421 0.167204
H3    H     H_    0.450022 0.431170 0.898666 0.190615
H4    H     H_    0.643417 0.630543 0.123276 0.164460
H5    H     H_    0.234469 0.710144 0.643230 0.156368
H6    H     H_    0.121275 0.860581 0.778182 0.163926
H7    H     H_    0.890139 0.856550 0.785941 0.190130
H8    H     H_    0.771197 0.706056 0.653188 0.171083
H9    H     H_    0.884952 0.359574 0.362546 0.197093
H10   H     H_    0.641236 0.872713 0.340960 0.197307
H11   H     H_    0.443674 0.925844 0.558702 0.174596
N1    N     N_2   0.501340 0.501330 0.852150 -0.181647
N2    N     N_2   0.501380 0.501360 0.147810 -0.160442
O1    O     O_R   0.499980 0.319060 0.613040 -0.539647
O2    O     O_R   0.500020 0.319100 0.386900 -0.551874
O3    O     O_R   0.316750 0.499980 0.613090 -0.619251
O4    O     O_R   0.316790 0.500020 0.386950 -0.610837
O5    O     O_R   0.499980 0.680900 0.613100 -0.613414
O6    O     O_R   0.500020 0.680940 0.386960 -0.613787
O7    O     O_R   0.683210 0.499980 0.613050 -0.598485
O8    O     O_R   0.683250 0.500020 0.386910 -0.604767
Zn1   Zn    Zn3+2 0.499970 0.499970 0.650990 1.009742
Zn2   Zn    Zn3+2 0.500030 0.500030 0.349010 1.024615
S1    S     S_3+6 0.634418 0.087791 0.662840 0.003630
O9    O     O_2   0.528667 0.052237 0.755527 -0.304863
O10   O     O_2   0.721046 0.977532 0.648186 -0.341942
O11   O     O_3   0.715420 0.208950 0.729298 -0.521038
H12   H     H_    0.740499 0.178749 0.819378 0.382080
H13   H     H_    0.432173 0.449123 0.102751 0.189903
S2    S     S_3+6 0.593429 0.123481 0.226304 0.028469
O12   O     O_2   0.464096 0.159076 0.180027 -0.288557
O13   O     O_2   0.679017 0.237046 0.217841 -0.303554
O14   O     O_3   0.648808 0.010581 0.125611 -0.558554
H14   H     H_    0.646939 0.048640 0.034762 0.403150

loop_
_geom_bond_atom_site_label_1
_geom_bond_atom_site_label_2
_ccdc_geom_bond_type
C11   N1    D    
S2    O13   D    
C13   N2    D    
C19   H8    S    
C2    C16   A    
C14   O5    A    
C6    C20   A    
C9    C10   D    
C11   H2    S    
O3    Zn1   S    
C19   C20   A    
O1    Zn1   S    
S1    O11   S    
H3    N1    S    
O7    Zn1   S    
C17   C18   A    
C6    C15   S    
C7    C8    D    
C7    H10   S    
O14   H14   S    
C4    H1    S    
O8    Zn2   S    
C15   O8    A    
C17   H6    S    
S1    O10   D    
C1    O1    A    
C2    C3    A    
C5    H9    S    
O6    Zn2   S    
C5    C6    A    
C15   O7    A    
S2    O14   S    
C12   O3    A    
C1    C10   S    
C18   H7    S    
C10   S1    S    
C3    C4    A    
N2    Zn2   S    
O5    Zn1   S    
C11   C13   S    
O2    Zn2   S    
S1    O9    D    
C1    O2    A    
C18   C19   A    
C12   O4    A    
N2    H13   S    
C16   H5    S    
C7    C9    S    
N1    Zn1   S    
C4    C5    A    
C8    C14   S    
C3    C12   S    
S2    O12   D    
C14   O6    A    
C8    H11   S    
C2    C20   A    
O4    Zn2   S    
C9    S2    S    
O11   H12   S    
C13   H4    S    
C16   C17   A    
