data_mof_unit_pretest_562.cif
_audit_creation_date              2013-03-05T15:53:42-0500
_audit_creation_method            fapswitch 2.2
_symmetry_space_group_name_H-M    P1
_symmetry_Int_Tables_number       1
_space_group_crystal_system       triclinic
_cell_length_a                    14.912557
_cell_length_b                    14.753912
_cell_length_c                    16.957877
_cell_angle_alpha                 108.673842
_cell_angle_beta                  106.093805
_cell_angle_gamma                 108.086524
_cell_volume                      3052.05077673

loop_
_atom_site_label
_atom_site_type_symbol
_atom_site_description
_atom_site_fract_x
_atom_site_fract_y
_atom_site_fract_z
_atom_type_partial_charge
C1    C     C_R   0.094161 0.276707 0.033025 -0.141223
H1    H     H_    0.175676 0.296059 0.061963 0.109677
N1    N     N_R   0.055640 0.348550 0.045600 -0.046293
C2    C     C_R   0.938832 0.453334 0.735418 -0.063868
H2    H     H_    0.862088 0.404895 0.681757 0.122018
N2    N     N_R   0.960830 0.507850 0.823710 -0.037947
C3    C     C_R   0.738730 0.204107 0.815589 -0.134926
H3    H     H_    0.714675 0.141547 0.835623 0.116024
N3    N     N_R   0.811290 0.303400 0.871650 -0.052667
C4    C     C_R   0.299100 0.593791 0.001008 -0.152649
H4    H     H_    0.326407 0.658514 0.983715 0.107715
N4    N     N_R   0.205180 0.552990 0.997660 -0.041958
C5    C     C_R   0.738598 0.302101 0.739664 0.140818
N5    N     N_R   0.814810 0.361830 0.823710 -0.063649
C6    C     C_R   0.296297 0.497929 0.078332 -0.139986
H5    H     H_    0.321849 0.471356 0.129161 0.095849
N6    N     N_R   0.201660 0.494570 0.045600 -0.040823
C7    C     C_R   0.111523 0.537946 0.813003 -0.124705
H6    H     H_    0.193891 0.567187 0.831890 0.099288
N7    N     N_R   0.068420 0.560530 0.871650 -0.045282
C8    C     C_R   0.921308 0.190892 0.957440 -0.115872
H7    H     H_    0.843205 0.129207 0.918149 0.103708
N8    N     N_R   0.948050 0.295860 0.997660 -0.047035
C9    C     C_R   0.011628 0.176130 0.975200 0.096300
C10   C     C_R   0.031817 0.468496 0.726665 0.039490
C11   C     C_R   0.696871 0.199133 0.730018 0.018731
C12   C     C_R   0.358645 0.560364 0.050719 0.088409
C13   C     C_R   0.272485 0.686111 0.251419 -0.114110
H8    H     H_    0.292600 0.647593 0.293300 0.086691
N9    N     N_R   0.185190 0.638170 0.176290 -0.040974
C14   C     C_R   0.753989 0.568667 0.978103 -0.165966
H9    H     H_    0.748929 0.625536 0.953143 0.154452
N10   N     N_R   0.798340 0.505430 0.954400 -0.054803
C15   C     C_R   0.894524 0.393958 0.176501 -0.062012
H10   H     H_    0.817758 0.330297 0.147941 0.161254
N11   N     N_R   0.931580 0.439470 0.128350 -0.062279
C16   C     C_R   0.083792 0.806749 0.019768 -0.121054
H11   H     H_    0.164149 0.864775 0.051676 0.104582
N12   N     N_R   0.051950 0.704140 0.002340 -0.047465
C17   C     C_R   0.913753 0.722892 0.938103 -0.070416
H12   H     H_    0.837453 0.703480 0.890755 0.162216
N13   N     N_R   0.944360 0.651450 0.954400 -0.048165
C18   C     C_R   0.065937 0.483205 0.254191 -0.112430
H13   H     H_    0.145272 0.506706 0.298014 0.092133
N14   N     N_R   0.039170 0.492150 0.176290 -0.048744
C19   C     C_R   0.280514 0.783005 0.174770 -0.123782
H14   H     H_    0.310278 0.836339 0.147224 0.089267
N15   N     N_R   0.188710 0.696600 0.128350 -0.040862
C20   C     C_R   0.740637 0.467795 0.051476 0.357246
N16   N     N_R   0.794820 0.447010 0.002340 -0.084939
Ni1   Ni    Ni4+2 0.119330 0.493420 0.109950 0.201824
Ni2   Ni    Ni4+2 0.880670 0.506580 0.890050 0.271102
Ni3   Ni    Ni4+2 0.872590 0.372590 0.000000 0.261001
Ni4   Ni    Ni4+2 0.127410 0.627410 0.000000 0.209714
C21   C     C_R   0.336239 0.776907 0.251617 0.063149
C22   C     C_R   0.716547 0.548314 0.039393 -0.099272
C23   C     C_R   0.976422 0.420412 0.256100 0.036002
C24   C     C_R   0.998492 0.822437 0.980615 0.049250
C25   C     C_R   0.510027 0.637211 0.022445 0.120359
C26   C     C_R   0.469028 0.597878 0.075696 0.039312
C27   C     C_R   0.534504 0.585861 0.144900 -0.198226
H15   H     H_    0.509486 0.565568 0.193624 0.140672
C28   C     C_R   0.628702 0.587823 0.143878 -0.110772
H16   H     H_    0.677144 0.574845 0.195051 0.190104
C29   C     C_R   0.652329 0.595174 0.070690 0.027254
C30   C     C_R   0.601547 0.637815 0.020568 0.102840
C31   C     C_3   0.562951 0.612896 0.920609 0.054294
C32   C     C_3   0.461475 0.609032 0.922888 -0.577554
H17   H     H_    0.554907 0.534406 0.875442 0.144743
H18   H     H_    0.443518 0.672533 0.911175 0.219811
H19   H     H_    0.396248 0.527588 0.881863 0.192179
C33   C     C_R   0.970769 0.379631 0.323976 0.117486
C34   C     C_R   0.042884 0.425188 0.640802 0.123706
C35   C     C_R   0.148099 0.445845 0.555923 -0.198812
C36   C     C_R   0.140883 0.461076 0.638758 -0.155787
C37   C     C_R   0.953660 0.359454 0.558191 -0.249411
C38   C     C_R   0.959673 0.350030 0.475844 0.179445
C39   C     C_R   0.057388 0.397921 0.475496 0.174144
C40   C     C_R   0.062294 0.408609 0.398127 -0.256452
C41   C     C_R   0.874080 0.322142 0.321209 -0.139399
C42   C     C_R   0.868747 0.305544 0.396323 -0.198067
H20   H     H_    0.137713 0.449512 0.400555 0.120533
H21   H     H_    0.802007 0.296018 0.264122 0.149680
H22   H     H_    0.223825 0.480785 0.556210 0.142777
H23   H     H_    0.793249 0.267102 0.395263 0.134313
H24   H     H_    0.211722 0.507695 0.700950 0.125654
H25   H     H_    0.877886 0.325582 0.557750 0.119504
C43   C     C_R   0.646947 0.102545 0.644185 0.131408
C44   C     C_R   0.442793 0.848883 0.319339 0.115918
C45   C     C_R   0.577119 0.029638 0.399285 -0.193352
C46   C     C_R   0.497777 0.944566 0.318297 -0.158555
C47   C     C_R   0.480019 0.832835 0.396623 -0.255871
C48   C     C_R   0.548808 0.919932 0.479330 0.170251
C49   C     C_R   0.595412 0.020052 0.481123 0.174267
C50   C     C_R   0.649290 0.110119 0.564382 -0.247375
C51   C     C_R   0.605185 0.002248 0.642527 -0.149682
C52   C     C_R   0.559184 0.910876 0.560563 -0.181485
H26   H     H_    0.687783 0.186257 0.565642 0.140094
H27   H     H_    0.605767 0.993843 0.703677 0.136844
H28   H     H_    0.614260 0.105753 0.399663 0.133391
H29   H     H_    0.523781 0.834161 0.559776 0.148385
H30   H     H_    0.473927 0.957225 0.257981 0.121727
H31   H     H_    0.443782 0.757526 0.397312 0.118878
C53   C     C_R   0.115552 0.073713 0.944913 0.136998
C54   C     C_R   0.019098 0.075198 0.932675 -0.000220
C55   C     C_R   0.929297 0.978018 0.872239 -0.321707
H32   H     H_    0.853316 0.973460 0.864052 0.191418
C56   C     C_R   0.936570 0.888046 0.816304 0.305473
C57   C     C_R   0.034666 0.895064 0.822066 -0.003433
C58   C     C_R   0.122784 0.985207 0.891370 0.066493
C59   C     C_3   0.217763 0.050373 0.886295 -0.405981
C60   C     C_3   0.210197 0.147878 0.944454 -0.481897
H33   H     H_    0.286789 0.041654 0.922509 0.201177
H34   H     H_    0.204660 0.040615 0.815638 0.199067
H35   H     H_    0.275563 0.195529 0.013757 0.199205
H36   H     H_    0.192660 0.194665 0.907440 0.202027
N17   N     N_R   0.684483 0.391873 0.076303 0.216564
O1    O     O_R   0.696127 0.418565 0.160616 -0.454680
O2    O     O_R   0.637881 0.291460 0.018484 -0.417378
I1    I     I_    0.641858 0.745398 0.898635 -0.381628
N18   N     N_R   0.844780 0.792130 0.750048 0.244778
O3    O     O_R   0.852550 0.709087 0.701065 -0.373186
O4    O     O_R   0.752861 0.786414 0.738540 -0.369268
I2    I     I_    0.657460 0.366045 0.666479 -0.384754

loop_
_geom_bond_atom_site_label_1
_geom_bond_atom_site_label_2
_geom_bond_distance
_ccdc_geom_bond_type
C4    C12   1.365833 A    
N9    Ni1   1.826933 S    
C28   C29   1.407538 A    
C48   C49   1.409969 A    
N1    N8    1.391824 A    
C59   C60   1.519488 S    
C56   N18   1.437049 S    
C18   H13   1.079356 S    
N6    Ni1   1.854772 S    
C43   C51   1.403500 A    
C2    C10   1.391987 A    
C50   H26   1.081344 S    
C3    H3    1.076485 S    
C38   C39   1.410966 A    
N10   Ni2   1.854774 S    
N15   Ni4   1.873431 S    
C3    C11   1.379094 A    
N9    N15   1.360577 A    
C13   H8    1.078666 S    
C15   H10   1.077482 S    
C33   C40   1.403117 A    
C12   C26   1.446720 S    
N17   O2    1.300731 A    
C25   C30   1.371292 A    
N12   Ni4   1.826589 S    
C55   H32   1.080341 S    
N14   Ni1   1.854746 S    
C22   C29   1.461050 S    
C51   H27   1.081101 S    
C56   C57   1.407284 A    
C6    N6    1.344213 A    
C1    H1    1.078920 S    
C27   C28   1.401066 A    
C58   C59   1.487607 S    
N11   Ni3   1.873246 S    
C47   H31   1.079683 S    
C20   N17   1.431177 S    
N4    N6    1.360460 A    
C15   C23   1.385147 A    
C14   N10   1.326603 A    
C45   C49   1.400054 A    
C14   C22   1.378282 A    
C44   C46   1.403863 A    
C31   I1    2.150923 S    
C7    N7    1.337341 A    
C16   C24   1.387623 A    
C42   H23   1.084134 S    
C17   N13   1.345752 A    
C30   C31   1.506124 S    
C43   C50   1.402041 A    
C25   C26   1.395489 A    
C5    N5    1.332424 A    
C34   C36   1.405936 A    
C49   C50   1.382583 A    
C7    C10   1.387310 A    
C41   H21   1.080688 S    
C45   H28   1.084041 S    
C53   C54   1.403374 A    
C13   C21   1.379492 A    
N8    Ni3   1.826589 S    
N12   N13   1.391825 A    
C19   N15   1.339898 A    
N16   Ni3   1.827685 S    
C17   C24   1.392176 A    
C35   C36   1.389949 A    
C31   C32   1.508320 S    
C37   C38   1.389315 A    
C2    N2    1.337524 A    
C53   C60   1.497345 S    
C5    I2    2.126101 S    
N1    Ni1   1.825562 S    
C39   C40   1.389287 A    
C7    H6    1.077891 S    
N10   N16   1.360458 A    
C26   C27   1.402667 A    
C1    N1    1.341727 A    
C19   C21   1.384916 A    
N3    N5    1.360578 A    
C16   H11   1.081005 S    
C25   C32   1.494407 S    
C36   H24   1.080721 S    
C6    C12   1.384946 A    
C14   H9    1.066712 S    
C38   C42   1.398101 A    
C51   C52   1.384613 A    
N11   N14   1.391822 A    
C59   H33   1.111574 S    
C44   C47   1.399572 A    
C18   N14   1.331875 A    
C37   H25   1.081190 S    
N18   O3    1.301670 A    
C4    N4    1.318246 A    
N7    Ni4   1.873249 S    
C17   H12   1.079466 S    
C29   C30   1.404671 A    
C8    N8    1.346098 A    
C34   C37   1.403148 A    
C5    C11   1.385399 A    
N3    Ni3   1.873434 S    
C46   H30   1.081405 S    
C48   C52   1.397115 A    
C60   H36   1.112397 S    
C31   H17   1.112171 S    
C3    N3    1.332046 A    
C19   H14   1.080674 S    
C35   H22   1.083932 S    
C41   C42   1.390192 A    
C40   H20   1.080658 S    
C20   C22   1.400842 A    
N2    N7    1.391822 A    
C54   C55   1.416113 A    
C13   N9    1.322806 A    
C33   C41   1.406514 A    
N17   O1    1.299549 A    
C53   C58   1.386963 A    
C45   C46   1.390917 A    
C55   C56   1.419056 A    
C32   H19   1.112567 S    
N5    Ni2   1.826934 S    
C47   C48   1.378561 A    
C15   N11   1.339352 A    
C59   H34   1.112135 S    
C10   C34   1.469195 S    
C23   C33   1.469614 S    
C27   H15   1.082364 S    
C21   C44   1.459817 S    
N4    Ni4   1.827686 S    
N18   O4    1.301358 A    
C4    H4    1.080627 S    
C18   C23   1.384416 A    
C28   H16   1.075313 S    
C11   C43   1.454598 S    
C2    H2    1.070939 S    
C1    C9    1.394070 A    
C16   N12   1.339401 A    
C20   N16   1.343395 A    
C35   C39   1.398458 A    
C8    C9    1.396974 A    
C57   C58   1.390868 A    
C32   H18   1.111015 S    
C9    C54   1.486560 S    
N2    Ni2   1.854743 S    
C8    H7    1.073337 S    
C60   H35   1.111701 S    
C52   H29   1.084156 S    
C6    H5    1.081169 S    
N13   Ni2   1.825560 S    
