data_mof_unit_pretest_1382.cif
_audit_creation_date              2012-12-11T15:20:41-0500
_audit_creation_method            fapswitch 2.2
_symmetry_space_group_name_H-M    P1
_symmetry_Int_Tables_number       1
_space_group_crystal_system       triclinic
_cell_length_a                    12.96644
_cell_length_b                    13.030576
_cell_length_c                    15.292734
_cell_angle_alpha                 116.870684
_cell_angle_beta                  63.453953
_cell_angle_gamma                 97.231122
_cell_volume                      2052.48623451

loop_
_atom_site_label
_atom_site_type_symbol
_atom_type_description
_atom_site_fract_x
_atom_site_fract_y
_atom_site_fract_z
_atom_type_partial_charge
C1    C     C_R   0.008886 0.834736 0.048087 -0.123537
C2    C     C_R   0.321798 0.526530 0.781223 -0.129010
C3    C     C_R   0.243874 0.478953 0.106803 -0.166691
C4    C     C_R   0.701754 0.403654 0.209268 -0.134778
C5    C     C_R   0.038308 0.277820 0.682695 -0.132613
C6    C     C_R   0.335916 0.541172 0.076366 0.159353
C7    C     C_R   0.024748 0.167758 0.675324 0.053969
C8    C     C_R   0.332287 0.456793 0.676918 0.043308
C9    C     C_R   0.040887 0.145004 0.015039 0.051571
C10   C     C_R   0.181885 0.958748 0.380043 -0.018437
C11   C     C_R   0.152898 0.059810 0.477214 -0.298335
C12   C     C_R   0.707255 0.429369 0.305255 0.047040
C13   C     C_R   0.072445 0.059983 0.576276 0.169615
C14   C     C_R   0.038857 0.955318 0.579885 -0.170094
C15   C     C_R   0.064424 0.856282 0.484080 -0.199242
C16   C     C_R   0.738587 0.577233 0.947939 -0.140992
C17   C     C_R   0.120520 0.862278 0.384257 0.143805
C18   C     C_R   0.640579 0.436663 0.486780 -0.172848
C19   C     C_R   0.545810 0.444352 0.580693 -0.168188
C20   C     C_R   0.440263 0.410451 0.577244 0.146452
C21   C     C_R   0.437659 0.345828 0.476134 -0.169536
C22   C     C_R   0.532335 0.338634 0.382152 -0.163043
C23   C     C_R   0.636289 0.562277 0.024162 0.118657
C24   C     C_R   0.629585 0.395188 0.389626 0.144705
C25   C     C_2   0.429484 0.562790 0.107096 -0.158392
C26   C     C_2   0.522511 0.606145 0.055141 -0.136515
C27   C     C_2   0.857958 0.965946 0.069383 -0.213341
C28   C     C_R   0.018664 0.695871 0.301094 -0.135847
C29   C     C_2   0.843540 0.052944 0.165633 -0.127052
C30   C     C_R   0.660925 0.483483 0.050500 -0.112871
C31   C     C_R   0.098561 0.797873 0.208177 -0.109889
C32   C     C_R   0.802332 0.490721 0.304899 -0.120614
C33   C     C_R   0.916208 0.752108 0.944031 -0.137303
C34   C     C_R   0.082401 0.788612 0.300310 0.069120
C35   C     C_R   0.929560 0.857101 0.019377 0.141011
C36   C     C_2   0.277475 0.956496 0.278744 0.450992
C37   C     C_R   0.322448 0.579647 0.011761 -0.103184
C38   C     C_R   0.960233 0.179009 0.780040 -0.133998
C39   C     C_R   0.221563 0.448523 0.683268 -0.123930
C40   C     C_R   0.073817 0.251862 0.068957 -0.126673
C41   C     C_R   0.968956 0.166968 0.978370 -0.098741
H1    H     H_    0.039903 0.896612 0.104975 0.089366
H2    H     H_    0.984815 0.949972 0.655358 0.107902
H3    H     H_    0.648228 0.344086 0.175991 0.084278
H4    H     H_    0.026101 0.780106 0.490803 0.112962
H5    H     H_    0.717179 0.474328 0.494096 0.105364
H6    H     H_    0.553328 0.487220 0.656481 0.106997
H7    H     H_    0.359939 0.310154 0.469858 0.101334
H8    H     H_    0.523865 0.298816 0.306805 0.105848
H9    H     H_    0.431687 0.519220 0.152191 0.111646
H10   H     H_    0.519230 0.653620 0.013633 0.135581
H11   H     H_    0.809159 0.973231 0.030080 0.132343
H12   H     H_    0.924838 0.111937 0.804222 0.084455
H13   H     H_    0.886491 0.050028 0.211320 0.124849
H14   H     H_    0.745782 0.621401 0.900957 0.087876
H15   H     H_    0.001874 0.653308 0.351857 0.084297
H16   H     H_    0.602404 0.446956 0.103217 0.090198
H17   H     H_    0.151385 0.855075 0.176440 0.114227
H18   H     H_    0.841431 0.512648 0.359639 0.081956
H19   H     H_    0.867826 0.741399 0.899366 0.088802
H20   H     H_    0.367913 0.644150 0.986679 0.107006
H21   H     H_    0.303903 0.036843 0.273662 0.002905
H22   H     H_    0.199723 0.412552 0.615960 0.082888
H23   H     H_    0.124914 0.268985 0.112984 0.093407
H24   H     H_    0.918911 0.104447 0.943002 0.083989
H25   H     H_    0.389786 0.554413 0.806767 0.089328
H26   H     H_    0.220798 0.448824 0.167935 0.090863
H27   H     H_    0.070011 0.300411 0.616200 0.085301
H28   H     H_    0.192147 0.137627 0.475137 0.109286
N1    N     N_R   0.037310 0.720000 0.995790 -0.046349
N2    N     N_R   0.824890 0.517960 0.936420 -0.041293
N3    N     N_R   0.003210 0.648190 0.211380 -0.038635
N4    N     N_R   0.774330 0.457010 0.995840 -0.046281
N5    N     N_R   0.053760 0.709140 0.151960 -0.045106
N6    N     N_R   0.853860 0.498840 0.211410 -0.038323
N7    N     N_R   0.974240 0.667310 0.936390 -0.042386
N8    N     N_R   0.225670 0.542990 0.004160 -0.047340
N9    N     N_R   0.946240 0.290860 0.848040 -0.039579
N10   N     N_R   0.146140 0.501160 0.788590 -0.040116
N11   N     N_R   0.025760 0.332690 0.063610 -0.040420
N12   N     N_R   0.962690 0.280000 0.004210 -0.042401
N13   N     N_R   0.209210 0.553840 0.847990 -0.041213
N14   N     N_R   0.175110 0.482040 0.063580 -0.039398
N15   N     N_R   0.996790 0.351810 0.788620 -0.038702
N16   N     N_R   0.790790 0.446160 0.152010 -0.038920
Ni1   Ni    Ni4+2 0.130310 0.630310 0.999970 0.222293
Ni2   Ni    Ni4+2 0.869690 0.369690 0.000030 0.211666
Ni3   Ni    Ni4+2 0.985640 0.509470 0.863740 0.213518
Ni4   Ni    Ni4+2 0.014360 0.490530 0.136260 0.209771
O1    O     O_2   0.331593 0.865441 0.202119 -0.599949

loop_
_geom_bond_atom_site_label_1
_geom_bond_atom_site_label_2
_ccdc_geom_bond_type
N9    Ni2   S    
C27   C29   D    
C19   C20   A    
C3    C6    A    
C32   N6    A    
C28   H15   S    
C8    C20   S    
C18   C24   A    
C31   H17   S    
C19   H6    S    
C6    C25   S    
C29   H13   S    
N8    N14   A    
C10   C17   A    
C30   H16   S    
C18   C19   A    
C23   C26   S    
N11   Ni4   S    
C25   H9    S    
N4    Ni2   S    
N6    N16   A    
C40   N11   A    
C8    C39   A    
C4    C12   A    
N7    Ni3   S    
C21   H7    S    
C28   C34   A    
C13   C14   A    
C12   C32   A    
C28   N3    A    
C16   N2    A    
C5    H27   S    
C36   H21   S    
C18   H5    S    
N10   Ni3   S    
N16   Ni2   S    
N14   Ni4   S    
C2    C8    A    
C31   C34   A    
C23   C30   A    
N3    N5    A    
N2    N4    A    
C5    N15   A    
C31   N5    A    
C41   H24   S    
C4    N16   A    
C38   N9    A    
C27   C35   S    
C25   C26   D    
C30   N4    A    
C37   N8    A    
C9    C40   A    
C39   N10   A    
C33   N7    A    
C41   N12   A    
C6    C37   A    
N5    Ni1   S    
N12   Ni2   S    
C4    H3    S    
C22   H8    S    
N8    Ni1   S    
C33   H19   S    
C3    N14   A    
C22   C24   A    
C2    N13   A    
C17   C34   S    
C15   H4    S    
N1    Ni1   S    
C27   H11   S    
C1    C35   A    
C5    C7    A    
C36   O1    D    
C15   C17   A    
C3    H26   S    
N15   Ni3   S    
N11   N12   A    
C2    H25   S    
N10   N13   A    
C37   H20   S    
C11   H28   S    
C16   C23   A    
C39   H22   S    
C12   C24   S    
C9    C41   A    
C1    N1    A    
C40   H23   S    
C16   H14   S    
N13   Ni1   S    
C26   H10   S    
N1    N7    A    
N3    Ni4   S    
C11   C13   A    
C38   H12   S    
C33   C35   A    
C7    C38   A    
C10   C11   A    
N6    Ni4   S    
N2    Ni3   S    
N9    N15   A    
C1    H1    S    
C7    C13   S    
C20   C21   A    
C14   C15   A    
C10   C36   S    
C32   H18   S    
C21   C22   A    
C14   H2    S    
