data_mof_unit_pretest_1012.cif
_audit_creation_date              2012-12-11T17:34:17-0500
_audit_creation_method            fapswitch 2.2
_symmetry_space_group_name_H-M    P1
_symmetry_Int_Tables_number       1
_space_group_crystal_system       triclinic
_cell_length_a                    23.732691
_cell_length_b                    7.208411
_cell_length_c                    20.903356
_cell_angle_alpha                 90.075305
_cell_angle_beta                  104.874358
_cell_angle_gamma                 89.865799
_cell_volume                      3456.20165416

loop_
_atom_site_label
_atom_site_type_symbol
_atom_type_description
_atom_site_fract_x
_atom_site_fract_y
_atom_site_fract_z
_atom_type_partial_charge
O1    O     O_R   0.449110 0.494310 0.552140 -0.523253
O2    O     O_R   0.550890 0.994310 0.447860 -0.515665
O3    O     O_R   0.440010 0.824420 0.415850 -0.528904
O4    O     O_R   0.559990 0.324420 0.584150 -0.539629
C1    C     C_R   0.425357 0.655939 0.391595 0.765000
C2    C     C_R   0.574562 0.155813 0.608427 0.698008
O5    O     O_R   0.442260 0.824040 0.549660 -0.534020
O6    O     O_R   0.557740 0.324040 0.450340 -0.533900
O7    O     O_R   0.553160 0.993960 0.582620 -0.542303
O8    O     O_R   0.446840 0.493960 0.417380 -0.526621
C3    C     C_R   0.427407 0.655142 0.565958 0.719227
C4    C     C_R   0.571060 0.154758 0.431848 0.730047
O9    O     O_3   0.536380 0.660670 0.510660 -0.371753
O10   O     O_3   0.463620 0.160670 0.489340 -0.357029
V1    V     V_3+5 0.493250 0.935680 0.498020 1.559869
V2    V     V_3+5 0.506750 0.435680 0.501980 1.549698
C5    C     C_R   0.847178 0.932201 0.200154 -0.141429
C6    C     C_R   0.155720 0.426239 0.802660 -0.140280
H1    H     H_    0.843367 0.819802 0.233145 0.185797
H2    H     H_    0.159952 0.312933 0.770088 0.187305
C7    C     C_R   0.885325 0.913253 0.158985 0.287610
C8    C     C_R   0.116543 0.409691 0.842704 0.287585
C9    C     C_R   0.891121 0.059559 0.115697 -0.164051
C10   C     C_R   0.109915 0.557489 0.885234 -0.164787
C11   C     C_R   0.859575 0.224659 0.117908 -0.152988
C12   C     C_R   0.141791 0.721576 0.883349 -0.152009
H3    H     H_    0.864483 0.342565 0.087982 0.225136
H4    H     H_    0.136313 0.840557 0.912640 0.225606
C13   C     C_R   0.820992 0.241469 0.158264 0.327969
C14   C     C_R   0.181445 0.735936 0.844161 0.326761
C15   C     C_R   0.814490 0.094549 0.199663 -0.017879
C16   C     C_R   0.188763 0.587514 0.803547 -0.016537
C17   C     C_1   0.774475 0.108857 0.241610 0.083057
C18   C     C_1   0.229102 0.600556 0.761831 0.084227
C19   C     C_1   0.740277 0.120404 0.275684 0.030028
C20   C     C_1   0.262823 0.612566 0.727128 0.029319
C21   C     C_R   0.661766 0.978213 0.315796 -0.118006
C22   C     C_R   0.304402 0.485530 0.639403 -0.129235
H5    H     H_    0.665504 0.855673 0.287027 0.165441
H6    H     H_    0.274662 0.369393 0.634407 0.157301
C23   C     C_R   0.619974 0.982769 0.352542 0.261504
C24   C     C_R   0.343492 0.493945 0.599197 0.273655
C25   C     C_R   0.614198 0.142934 0.390517 -0.106064
C26   C     C_R   0.382970 0.644772 0.605214 -0.101440
C27   C     C_R   0.651357 0.294719 0.389076 -0.132899
C28   C     C_R   0.380255 0.786774 0.650762 -0.163360
H7    H     H_    0.648876 0.418892 0.417428 0.173947
H8    H     H_    0.409482 0.904342 0.656564 0.150476
C29   C     C_R   0.692787 0.288135 0.351773 -0.078598
C30   C     C_R   0.340859 0.776918 0.690541 -0.082114
H9    H     H_    0.720618 0.406968 0.351628 0.142887
H10   H     H_    0.340182 0.887089 0.725643 0.155034
C31   C     C_R   0.698221 0.129471 0.315127 0.050798
C32   C     C_R   0.303089 0.625412 0.685447 0.050398
C33   C     C_R   0.638945 0.272246 0.785996 0.293280
C34   C     C_R   0.360181 0.777358 0.214671 0.288936
H11   H     H_    0.554775 0.291843 0.718020 0.144984
H12   H     H_    0.444015 0.798831 0.282608 0.187639
H13   H     H_    0.723566 0.320525 0.894905 0.217689
H14   H     H_    0.275548 0.825450 0.105925 0.215885
C35   C     C_R   0.616182 0.155259 0.674110 -0.102460
C36   C     C_R   0.383603 0.656050 0.325953 -0.117475
C37   C     C_R   0.896769 0.988979 0.774596 -0.192563
C38   C     C_R   0.103429 0.486382 0.225249 -0.193169
C39   C     C_R   0.861392 0.997753 0.710732 -0.094679
C40   C     C_R   0.138870 0.493774 0.289103 -0.095375
C41   C     C_R   0.804282 0.062564 0.698108 0.266621
C42   C     C_R   0.195830 0.559182 0.301878 0.273991
C43   C     C_R   0.779220 0.105214 0.751571 0.004786
C44   C     C_R   0.220680 0.604109 0.248516 -0.000614
C45   C     C_R   0.818479 0.122747 0.816922 -0.015075
C46   C     C_R   0.181305 0.622859 0.183259 -0.014687
C47   C     C_R   0.717661 0.141023 0.742314 0.059448
C48   C     C_R   0.282118 0.641131 0.257833 0.058360
C49   C     C_R   0.698098 0.221833 0.794847 0.004300
C50   C     C_R   0.301309 0.724695 0.205625 0.002736
C51   C     C_R   0.737723 0.254668 0.855181 -0.119084
C52   C     C_R   0.261599 0.758079 0.145422 -0.117750
C53   C     C_R   0.796091 0.207526 0.866747 0.198082
C54   C     C_R   0.203431 0.709399 0.133668 0.198926
C55   C     C_R   0.674160 0.094681 0.683705 -0.149928
C56   C     C_R   0.325864 0.593653 0.316162 -0.146394
C57   C     C_R   0.599312 0.243785 0.725380 -0.171720
C58   C     C_R   0.399900 0.748109 0.275105 -0.144822
C59   C     C_R   0.877949 0.057803 0.828109 -0.074765
C60   C     C_R   0.122007 0.557142 0.171935 -0.074823
H15   H     H_    0.683919 0.011169 0.645223 0.168697
H16   H     H_    0.316448 0.508238 0.354280 0.182937
H17   H     H_    0.940990 0.938036 0.781798 0.159815
H18   H     H_    0.059339 0.434781 0.217931 0.160477
H19   H     H_    0.879759 0.961128 0.670024 0.174407
H20   H     H_    0.120665 0.455474 0.329716 0.175696
O11   O     O_R   0.053190 0.709680 0.082610 -0.510130
O12   O     O_R   0.946810 0.209680 0.917390 -0.510285
O13   O     O_R   0.057740 0.380240 0.950340 -0.513047
O14   O     O_R   0.942260 0.880240 0.049660 -0.512819
C61   C     C_R   0.069537 0.547978 0.930019 0.771884
C62   C     C_R   0.930732 0.048396 0.070183 0.773119
O15   O     O_R   0.060000 0.379940 0.084150 -0.542975
O16   O     O_R   0.940000 0.879940 0.915850 -0.542969
O17   O     O_R   0.949110 0.210100 0.052140 -0.527508
O18   O     O_R   0.050890 0.710100 0.947860 -0.526856
C63   C     C_R   0.077366 0.549313 0.106862 0.763041
C64   C     C_R   0.922608 0.049476 0.893171 0.762406
O19   O     O_3   0.963630 0.543720 0.989330 -0.354497
O20   O     O_3   0.036370 0.043720 0.010670 -0.354007
V3    V     V_3+5 0.006750 0.268680 0.001980 1.616824
V4    V     V_3+5 0.993250 0.768680 0.998020 1.616475
Br1   Br    Br    0.609077 0.389032 0.853488 -0.446394
Br2   Br    Br    0.389522 0.898895 0.147834 -0.417239
Br3   Br    Br    0.771979 0.135095 0.607233 -0.561875
Br4   Br    Br    0.228162 0.629088 0.393037 -0.492113
Br5   Br    Br    0.839633 0.299725 0.949748 -0.542783
Br6   Br    Br    0.159827 0.801697 0.050710 -0.542731
Br7   Br    Br    0.931370 0.690307 0.169281 -0.546650
Br8   Br    Br    0.070277 0.187773 0.831785 -0.545350
Br9   Br    Br    0.777382 0.467428 0.154762 -0.468480
Br10  Br    Br    0.225233 0.960956 0.847995 -0.478289
Br11  Br    Br    0.571864 0.765353 0.344808 -0.551171
Br12  Br    Br    0.337579 0.299696 0.534719 -0.476829

loop_
_geom_bond_atom_site_label_1
_geom_bond_atom_site_label_2
_ccdc_geom_bond_type
O17   V3    S    
C40   C42   A    
C37   C39   A    
C34   C50   A    
C19   C31   S    
C47   C49   A    
O15   C63   A    
O1    C3    A    
C38   H18   S    
C7    Br7   S    
O2    C4    A    
H13   C51   S    
C2    O7    A    
C45   C53   A    
O5    C3    A    
H14   C52   S    
C30   C32   A    
C48   C50   A    
C2    C35   S    
C10   C12   A    
C22   C24   A    
C4    C25   S    
O11   V4    S    
C52   C54   A    
O20   V3    S    
O16   C64   A    
C42   Br4   S    
C38   C60   A    
C43   C45   A    
C5    H1    S    
C45   C59   A    
C39   C41   A    
O14   C62   A    
C44   C48   A    
C30   H10   S    
C15   C17   S    
O18   V4    S    
C14   C16   A    
C6    H2    S    
C61   O18   A    
C33   C49   A    
C51   C53   A    
O14   V4    S    
O12   C64   A    
O6    V2    S    
C37   C59   A    
C21   C23   A    
C23   C25   A    
O11   C63   A    
C24   C26   A    
C48   C56   A    
C13   C15   A    
C60   C63   S    
C34   Br2   S    
C26   C28   A    
C34   C58   A    
C27   H7    S    
C11   C13   A    
O19   V4    S    
C28   H8    S    
O12   V3    S    
O16   V4    S    
C44   C46   A    
C10   C61   S    
O4    C2    A    
C35   C57   A    
C40   H20   S    
O5    V1    S    
C14   Br10  S    
C29   H9    S    
C13   Br9   S    
C5    C7    A    
C41   C43   A    
C16   C18   S    
O4    V2    S    
H12   C58   S    
C49   C51   A    
C22   C32   A    
C27   C29   A    
O6    C4    A    
C37   H17   S    
H11   C57   S    
C3    C26   S    
O1    V2    S    
C23   Br11  S    
C43   C47   A    
O2    V1    S    
C25   C27   A    
C55   H15   S    
C59   C64   S    
O13   V3    S    
C47   C55   A    
C41   Br3   S    
C54   Br6   S    
C12   C14   A    
C7    C9    A    
C5    C15   A    
C8    C10   A    
C6    C16   A    
C33   C57   A    
O3    V1    S    
C39   H19   S    
C36   C58   A    
C6    C8    A    
C50   C52   A    
O3    C1    A    
C46   C60   A    
O13   C61   A    
C11   H3    S    
C62   O17   A    
O15   V3    S    
C28   C30   A    
C12   H4    S    
C53   Br5   S    
O7    V1    S    
C21   C31   A    
C1    O8    A    
C46   C54   A    
C35   C55   A    
C22   H6    S    
C24   Br12  S    
C56   H16   S    
C8    Br8   S    
C17   C19   T    
C1    C36   S    
C18   C20   T    
C9    C11   A    
C36   C56   A    
C29   C31   A    
C20   C32   S    
C9    C62   S    
C21   H5    S    
O9    V2    S    
C42   C44   A    
O10   V1    S    
O8    V2    S    
C33   Br1   S    
C38   C40   A    
