data_mof_unit_pretest_997.cif
_audit_creation_date              2012-12-11T14:42:04-0500
_audit_creation_method            fapswitch 2.2
_symmetry_space_group_name_H-M    P1
_symmetry_Int_Tables_number       1
_space_group_crystal_system       triclinic
_cell_length_a                    18.988838
_cell_length_b                    10.925945
_cell_length_c                    18.807146
_cell_angle_alpha                 89.845153
_cell_angle_beta                  90.400923
_cell_angle_gamma                 89.715917
_cell_volume                      3901.77927435

loop_
_atom_site_label
_atom_site_type_symbol
_atom_type_description
_atom_site_fract_x
_atom_site_fract_y
_atom_site_fract_z
_atom_type_partial_charge
C1    C     C_R   0.726565 0.956960 0.854785 0.570491
C2    C     C_R   0.273420 0.956999 0.145209 0.570749
C3    C     C_R   0.226565 0.456960 0.854785 0.561261
C4    C     C_R   0.773424 0.457009 0.145205 0.571848
C5    C     C_R   0.700468 0.479066 0.034845 0.369496
C6    C     C_R   0.299391 0.478255 0.965036 0.369608
C7    C     C_R   0.200456 0.979029 0.034855 0.370213
C8    C     C_R   0.799389 0.978259 0.965037 0.369649
C9    C     C_R   0.758311 0.425964 0.070865 -0.107922
C10   C     C_R   0.241690 0.425674 0.929185 -0.105649
C11   C     C_R   0.258300 0.925932 0.070875 -0.105862
C12   C     C_R   0.741688 0.925677 0.929186 -0.106195
C13   C     C_R   0.812363 0.370988 0.031414 0.402253
C14   C     C_R   0.187658 0.371561 0.968794 0.402979
C15   C     C_R   0.312349 0.870946 0.031426 0.402962
C16   C     C_R   0.687655 0.871565 0.968795 0.402613
C17   C     C_R   0.813971 0.383774 0.958617 0.230093
C18   C     C_R   0.185842 0.384981 0.041492 0.228999
C19   C     C_R   0.313960 0.883736 0.958629 0.229797
C20   C     C_R   0.685840 0.884983 0.041493 0.229202
C21   C     C_R   0.752486 0.422512 0.921887 -0.170535
C22   C     C_R   0.247223 0.423046 0.078114 -0.172344
C23   C     C_R   0.252479 0.922485 0.921897 -0.171669
C24   C     C_R   0.747221 0.923048 0.078115 -0.172121
C25   C     C_R   0.535566 0.282299 0.523573 0.388801
C26   C     C_R   0.529926 0.281949 0.451461 0.398311
C27   C     C_R   0.970097 0.698573 0.547789 0.399201
C28   C     C_R   0.949617 0.701047 0.477839 0.359293
C29   C     C_R   0.518733 0.170939 0.415741 -0.042200
C30   C     C_R   0.547103 0.172896 0.560771 -0.067023
C31   C     C_R   0.997263 0.667140 0.425026 0.044320
C32   C     C_R   0.039514 0.667677 0.564985 0.043900
C33   C     C_R   0.532943 0.059198 0.450103 0.159240
C34   C     C_R   0.549668 0.060380 0.523639 0.118437
C35   C     C_R   0.065390 0.626242 0.441221 0.200527
C36   C     C_R   0.088072 0.631412 0.512834 0.178834
C37   C     C_R   0.825944 0.419829 0.552554 0.216715
C38   C     C_R   0.221300 0.271167 0.479782 0.127434
C39   C     C_R   0.311959 0.941661 0.549373 0.179573
C40   C     C_R   0.707113 0.814399 0.473086 0.169309
C41   C     C_R   0.836768 0.444730 0.479776 0.210573
C42   C     C_R   0.216339 0.295674 0.553284 0.166521
C43   C     C_R   0.319097 0.966497 0.476566 0.166818
C44   C     C_R   0.713543 0.818427 0.547276 0.172627
C45   C     C_R   0.529704 0.177553 0.850751 0.569525
C46   C     C_R   0.470215 0.177442 0.149192 0.556886
C47   C     C_R   0.029701 0.677553 0.850749 0.579113
C48   C     C_R   0.970219 0.677442 0.149195 0.566837
C49   C     C_R   0.778362 0.473308 0.435875 -0.004493
C50   C     C_R   0.253804 0.395072 0.582306 0.001898
C51   C     C_R   0.263224 0.939772 0.429333 0.019343
C52   C     C_R   0.751440 0.913157 0.578399 0.026158
C53   C     C_R   0.711014 0.483057 0.465112 0.365528
C54   C     C_R   0.306878 0.451030 0.542303 0.370430
C55   C     C_R   0.196525 0.914762 0.455326 0.378980
C56   C     C_R   0.795186 0.988024 0.536630 0.386296
C57   C     C_R   0.701715 0.468726 0.537402 0.365145
C58   C     C_R   0.316561 0.419095 0.471574 0.353064
C59   C     C_R   0.187049 0.906033 0.527995 0.321472
C60   C     C_R   0.796875 0.973097 0.463473 0.397168
C61   C     C_R   0.757231 0.427980 0.580554 0.003223
C62   C     C_R   0.270928 0.334879 0.438432 -0.056196
C63   C     C_R   0.245670 0.909786 0.574546 -0.012729
C64   C     C_R   0.752199 0.888224 0.430885 0.008585
C65   C     C_R   0.739367 0.367892 0.851634 0.523888
C66   C     C_R   0.260529 0.367910 0.148386 0.527828
C67   C     C_R   0.239365 0.867887 0.851636 0.520931
C68   C     C_R   0.760530 0.867908 0.148384 0.515335
C69   C     C_R   0.729085 0.953972 0.648363 0.589936
C70   C     C_R   0.273975 0.959195 0.354168 0.628346
C71   C     C_R   0.229231 0.451328 0.648868 0.624116
C72   C     C_R   0.789771 0.498774 0.360434 0.620617
C73   C     C_R   0.561955 0.180362 0.636888 0.588451
C74   C     C_R   0.475241 0.176332 0.351614 0.596666
C75   C     C_R   0.062410 0.680114 0.637305 0.667409
C76   C     C_R   0.972191 0.675740 0.353591 0.656842
C77   C     C_R   0.740817 0.366903 0.647983 0.589515
C78   C     C_R   0.274669 0.311572 0.361216 0.597454
C79   C     C_R   0.238464 0.862235 0.646071 0.621237
C80   C     C_R   0.761238 0.857811 0.355657 0.609443
C81   C     C_2   0.498041 0.168711 0.921259 -0.153552
C82   C     C_2   0.501686 0.168394 0.078592 -0.152227
C83   C     C_2   0.998040 0.668711 0.921258 -0.151391
C84   C     C_2   0.001688 0.668398 0.078593 -0.150111
C85   C     C_2   0.493339 0.067529 0.038439 0.378804
C86   C     C_2   0.506106 0.067492 0.961539 0.377671
C87   C     C_2   0.993346 0.567531 0.038440 0.378315
C88   C     C_2   0.006109 0.567495 0.961540 0.377063
C89   C     C_R   0.697063 0.477842 0.960670 0.205332
C90   C     C_R   0.302607 0.477554 0.039191 0.204082
C91   C     C_R   0.197053 0.977809 0.960680 0.205238
C92   C     C_R   0.802604 0.977559 0.039192 0.205040
Cr1   Cr    Cr6+3 0.769270 0.163730 0.750710 1.185419
Cr2   Cr    Cr6+3 0.230730 0.163730 0.249290 1.180853
Cr3   Cr    Cr6+3 0.269270 0.663730 0.750710 1.191689
Cr4   Cr    Cr6+3 0.730730 0.663730 0.249290 1.204569
Cr5   Cr    Cr6+3 0.612620 0.009790 0.748780 1.176529
Cr6   Cr    Cr6+3 0.387380 0.009790 0.251220 1.186315
Cr7   Cr    Cr6+3 0.112620 0.509790 0.748780 1.179541
Cr8   Cr    Cr6+3 0.887380 0.509790 0.251220 1.183779
Cr9   Cr    Cr6+3 0.614160 0.322500 0.747710 1.160614
Cr10  Cr    Cr6+3 0.385840 0.322500 0.252290 1.169993
Cr11  Cr    Cr6+3 0.114160 0.822500 0.747710 1.152388
Cr12  Cr    Cr6+3 0.885840 0.822500 0.252290 1.162417
H1    H     H_    0.522443 0.251873 0.055514 0.100010
H2    H     H_    0.477437 0.252546 0.944223 0.099832
H3    H     H_    0.022439 0.751881 0.055513 0.099351
H4    H     H_    0.977434 0.752545 0.944221 0.099849
O1    O     O_R   0.784320 0.290430 0.830510 -0.454456
O2    O     O_R   0.215680 0.290430 0.169490 -0.454984
O3    O     O_R   0.284320 0.790430 0.830510 -0.455310
O4    O     O_R   0.715680 0.790430 0.169490 -0.458548
O5    O     O_R   0.554640 0.080370 0.673500 -0.439651
O6    O     O_R   0.445360 0.080370 0.326500 -0.427630
O7    O     O_R   0.054640 0.580370 0.673500 -0.489842
O8    O     O_R   0.945360 0.580370 0.326500 -0.481065
O9    O     O_R   0.543920 0.282180 0.666790 -0.410157
O10   O     O_R   0.456080 0.282180 0.333210 -0.427091
O11   O     O_R   0.043920 0.782180 0.666790 -0.401622
O12   O     O_R   0.956080 0.782180 0.333210 -0.439079
O13   O     O_R   0.679040 0.374160 0.674430 -0.460646
O14   O     O_R   0.320960 0.374160 0.325570 -0.435354
O15   O     O_R   0.179040 0.874160 0.674430 -0.480411
O16   O     O_R   0.820960 0.874160 0.325570 -0.436461
O17   O     O_3   0.665350 0.165340 0.749070 -0.360738
O18   O     O_3   0.334650 0.165340 0.250930 -0.357476
O19   O     O_3   0.165350 0.665340 0.749070 -0.353742
O20   O     O_3   0.834650 0.665340 0.250930 -0.356969
O21   O     O_R   0.762640 0.040960 0.825200 -0.441798
O22   O     O_R   0.237360 0.040960 0.174800 -0.443415
O23   O     O_R   0.262640 0.540960 0.825200 -0.447174
O24   O     O_R   0.737360 0.540960 0.174800 -0.440848
O25   O     O_R   0.667400 0.923970 0.829950 -0.422369
O26   O     O_R   0.332600 0.923970 0.170050 -0.425185
O27   O     O_R   0.167400 0.423970 0.829950 -0.427373
O28   O     O_R   0.832600 0.423970 0.170050 -0.424748
O29   O     O_R   0.553960 0.081340 0.821780 -0.430448
O30   O     O_R   0.446040 0.081340 0.178220 -0.438455
O31   O     O_R   0.053960 0.581340 0.821780 -0.429044
O32   O     O_R   0.946040 0.581340 0.178220 -0.437195
O33   O     O_R   0.543180 0.283240 0.826740 -0.475014
O34   O     O_R   0.456820 0.283240 0.173260 -0.477027
O35   O     O_R   0.043180 0.783240 0.826740 -0.473360
O36   O     O_R   0.956820 0.783240 0.173260 -0.477046
O37   O     O_R   0.678360 0.375140 0.822710 -0.495560
O38   O     O_R   0.321640 0.375140 0.177290 -0.491677
O39   O     O_R   0.178360 0.875140 0.822710 -0.500162
O40   O     O_R   0.821640 0.875140 0.177290 -0.497069
O41   O     O_R   0.785050 0.289380 0.670560 -0.432706
O42   O     O_R   0.214950 0.289380 0.329440 -0.446769
O43   O     O_R   0.285050 0.789380 0.670560 -0.427407
O44   O     O_R   0.714950 0.789380 0.329440 -0.441868
O45   O     O_R   0.763320 0.039990 0.676930 -0.453101
O46   O     O_R   0.236680 0.039990 0.323070 -0.455790
O47   O     O_R   0.263320 0.539990 0.676930 -0.447610
O48   O     O_R   0.736680 0.539990 0.323070 -0.425485
O49   O     O_R   0.668130 0.922920 0.670000 -0.463381
O50   O     O_R   0.331870 0.922920 0.330000 -0.458669
O51   O     O_R   0.168130 0.422920 0.670000 -0.448863
O52   O     O_R   0.831870 0.422920 0.330000 -0.446918
F1    F     F_    0.474124 0.959562 0.068321 -0.465836
F2    F     F_    0.524943 0.959175 0.931777 -0.465710
F3    F     F_    0.974144 0.459560 0.068325 -0.466357
F4    F     F_    0.024950 0.459179 0.931778 -0.465748
O53   O     O_3   0.902944 0.439073 0.449667 -0.644710
H5    H     H_    0.939646 0.445126 0.487007 0.322310
O54   O     O_3   0.174182 0.226564 0.597403 -0.647156
H6    H     H_    0.169153 0.143568 0.577260 0.350421
O55   O     O_3   0.377766 0.024553 0.451046 -0.684755
H7    H     H_    0.394252 0.082344 0.488082 0.309964
O56   O     O_3   0.684322 0.730395 0.590550 -0.618389
H8    H     H_    0.632563 0.734905 0.585045 0.373017
F5    F     F_    0.653219 0.500553 0.423460 -0.497800
F6    F     F_    0.347037 0.541873 0.570101 -0.516573
F7    F     F_    0.140598 0.901981 0.410583 -0.553514
F8    F     F_    0.834491 0.078642 0.565895 -0.551811
F9    F     F_    0.637328 0.490261 0.564794 -0.508240
F10   F     F_    0.367737 0.477556 0.434797 -0.497698
F11   F     F_    0.120773 0.890486 0.552374 -0.587556
F12   F     F_    0.840404 0.044482 0.424339 -0.542520
O57   O     O_3   0.639387 0.531983 0.928357 -0.513968
H9    H     H_    0.654236 0.563617 0.881396 0.356241
O58   O     O_3   0.360086 0.531297 0.071351 -0.514137
H10   H     H_    0.345026 0.563477 0.118078 0.356045
O59   O     O_3   0.139377 0.031950 0.928369 -0.514655
H11   H     H_    0.154229 0.063598 0.881411 0.354258
O60   O     O_3   0.860082 0.031307 0.071353 -0.514738
H12   H     H_    0.845020 0.063481 0.118081 0.354919
F13   F     F_    0.647795 0.534861 0.071239 -0.498143
F14   F     F_    0.352107 0.533057 0.928485 -0.500638
F15   F     F_    0.147783 0.034823 0.071249 -0.498827
F16   F     F_    0.852104 0.033063 0.928486 -0.499795
F17   F     F_    0.866948 0.311033 0.063310 -0.453513
F18   F     F_    0.133315 0.311846 0.937117 -0.453203
F19   F     F_    0.366934 0.810992 0.063323 -0.452800
F20   F     F_    0.633312 0.811852 0.937118 -0.452491
O61   O     O_3   0.875636 0.351976 0.924778 -0.469275
H13   H     H_    0.879363 0.403386 0.881416 0.339470
O62   O     O_3   0.124165 0.354207 0.075398 -0.470954
H14   H     H_    0.120461 0.405501 0.118674 0.337533
O63   O     O_3   0.375627 0.851938 0.924793 -0.469240
H15   H     H_    0.379361 0.903362 0.881438 0.337873
O64   O     O_3   0.624163 0.854207 0.075400 -0.470173
H16   H     H_    0.620460 0.905494 0.118678 0.335091
F21   F     F_    0.523241 0.390472 0.556619 -0.447243
F22   F     F_    0.524397 0.392778 0.418711 -0.442209
F23   F     F_    0.922775 0.729014 0.598763 -0.548189
F24   F     F_    0.882286 0.732916 0.461257 -0.625798
O65   O     O_3   0.526013 0.951855 0.412159 -0.616317
H17   H     H_    0.501771 0.891269 0.442538 0.373705
O66   O     O_3   0.565185 0.954524 0.560740 -0.667331
H18   H     H_    0.574378 0.887605 0.527092 0.332505
O67   O     O_3   0.107530 0.584194 0.386837 -0.659982
H19   H     H_    0.142374 0.525522 0.406793 0.342311
O68   O     O_3   0.157016 0.609704 0.533141 -0.726640
H20   H     H_    0.188269 0.626086 0.492339 0.340382
O69   O     O_3   0.880976 0.384952 0.596649 -0.623747
H21   H     H_    0.910694 0.325561 0.570568 0.373975
O70   O     O_3   0.176784 0.188991 0.446868 -0.651334
H22   H     H_    0.131392 0.187623 0.472486 0.375617
O71   O     O_3   0.367954 0.948735 0.596577 -0.646718
H23   H     H_    0.412574 0.941964 0.569879 0.373377
O72   O     O_3   0.658409 0.739037 0.440523 -0.579134
H24   H     H_    0.624183 0.707391 0.475138 0.388535

loop_
_geom_bond_atom_site_label_1
_geom_bond_atom_site_label_2
_ccdc_geom_bond_type
C58   C62   A    
C87   F3    S    
O56   H8    S    
C4    C9    S    
O53   H5    S    
C72   O48   A    
C55   C59   A    
C85   F1    S    
O55   H7    S    
C14   C18   A    
Cr1   O41   S    
C35   C36   A    
Cr8   O8    S    
C84   C87   D    
Cr5   O25   S    
C87   C88   S    
Cr11  O15   S    
C32   C75   S    
Cr9   O13   S    
C43   O55   S    
C92   O60   S    
Cr11  O39   S    
C46   O34   A    
C21   C89   A    
C85   C86   S    
C15   C19   A    
Cr4   O4    S    
Cr9   O37   S    
Cr2   O22   S    
C56   F8    S    
C37   C41   A    
C3    O23   A    
C32   C36   A    
C56   C60   A    
C38   C42   A    
C1    O21   A    
Cr1   O1    S    
C36   O68   S    
C68   O4    A    
Cr1   O21   S    
Cr6   O6    S    
C31   C35   A    
C74   O6    A    
C29   C33   A    
C37   O69   S    
C19   O63   S    
C84   H3    S    
C73   O5    A    
C83   H4    S    
C48   O36   A    
O63   H15   S    
C82   H1    S    
C23   C67   S    
Cr12  O40   S    
C4    O28   A    
C22   C66   S    
C9    C13   A    
C52   C69   S    
Cr8   O32   S    
C76   O8    A    
C46   C82   S    
Cr9   O33   S    
C41   C49   A    
O59   H11   S    
C72   O52   A    
Cr6   O50   S    
C61   C77   S    
C18   O62   S    
C49   C72   S    
C41   O53   S    
C69   O49   A    
Cr12  O36   S    
C17   O61   S    
C8    C92   A    
C51   C70   S    
C47   C83   S    
C8    C12   A    
Cr11  O19   S    
Cr3   O47   S    
C81   C86   D    
Cr10  O10   S    
C16   C20   A    
C46   O30   A    
Cr4   O24   S    
C15   F19   S    
C44   C52   A    
C65   O1    A    
C83   C88   D    
C14   F18   S    
C7    C91   A    
O62   H14   S    
Cr8   O20   S    
Cr3   O23   S    
C64   C80   S    
Cr7   O31   S    
C26   F22   S    
C1    C12   S    
C33   O65   S    
C25   F21   S    
C2    C11   S    
C24   C92   A    
Cr5   O29   S    
C33   C34   A    
Cr1   O17   S    
Cr2   O18   S    
C74   O10   A    
C45   C81   S    
C1    O25   A    
C3    O27   A    
C73   O9    A    
C30   C34   A    
C40   O72   S    
C53   F5    S    
Cr3   O3    S    
C12   C16   A    
C75   O11   A    
C47   O35   A    
O72   H24   S    
Cr5   O17   S    
C70   O46   A    
C10   C14   A    
C77   O41   A    
O54   H6    S    
C30   C73   S    
C48   O32   A    
C19   C23   A    
C39   C43   A    
C29   C74   S    
C51   C55   A    
C25   C26   A    
O67   H19   S    
C79   O15   A    
Cr2   O2    S    
C17   C21   A    
C48   C84   S    
Cr11  O35   S    
C70   O50   A    
C89   O57   S    
O57   H9    S    
C7    C11   A    
O58   H10   S    
C5    C9    A    
O71   H23   S    
C16   F20   S    
Cr4   O20   S    
Cr8   O52   S    
Cr9   O17   S    
O66   H18   S    
Cr12  O20   S    
Cr7   O19   S    
Cr6   O18   S    
C88   F4    S    
Cr2   O46   S    
C71   O47   A    
C6    F14   S    
C45   O29   A    
O65   H17   S    
C22   C90   A    
Cr7   O27   S    
C58   F10   S    
C50   C71   S    
C76   O12   A    
C66   O2    A    
C35   O67   S    
C55   F7    S    
C45   O33   A    
C86   F2    S    
C67   O3    A    
C42   C50   A    
C11   C15   A    
C67   O39   A    
C28   F24   S    
C23   C91   A    
Cr7   O51   S    
Cr5   O5    S    
O70   H22   S    
C71   O51   A    
C42   O54   S    
C78   O42   A    
C79   O43   A    
C54   C58   A    
C25   C30   A    
C80   O44   A    
C81   H2    S    
C53   C57   A    
C7    F15   S    
C21   C65   S    
C27   C32   A    
C18   C22   A    
C38   O70   S    
C62   C78   S    
C28   C31   A    
Cr11  O11   S    
C20   O64   S    
Cr10  O18   S    
C68   O40   A    
C6    C10   A    
C37   C61   A    
C2    O26   A    
C57   C61   A    
C63   C79   S    
C60   F12   S    
C82   C85   D    
C39   C63   A    
Cr6   O26   S    
C59   C63   A    
C40   C64   A    
C13   C17   A    
C60   C64   A    
Cr9   O9    S    
C54   F6    S    
C59   F11   S    
O69   H21   S    
C44   O56   S    
C5    F13   S    
O60   H12   S    
C50   C54   A    
C3    C10   S    
C6    C90   A    
Cr6   O30   S    
Cr10  O38   S    
C57   F9    S    
C4    O24   A    
C43   C51   A    
C31   C76   S    
Cr4   O48   S    
C52   C56   A    
C8    F16   S    
C49   C53   A    
Cr7   O7    S    
Cr1   O45   S    
C2    O22   A    
C77   O13   A    
C27   F23   S    
O68   H20   S    
C91   O59   S    
O61   H13   S    
C78   O14   A    
C69   O45   A    
C66   O38   A    
C80   O16   A    
C34   O66   S    
C24   C68   S    
C75   O7    A    
Cr3   O19   S    
Cr2   O42   S    
C40   C44   A    
Cr3   O43   S    
C90   O58   S    
C26   C29   A    
C47   O31   A    
C27   C28   A    
C39   O71   S    
C13   F17   S    
Cr10  O34   S    
O64   H16   S    
Cr12  O12   S    
Cr12  O16   S    
Cr10  O14   S    
C65   O37   A    
C20   C24   A    
C5    C89   A    
Cr8   O28   S    
Cr5   O49   S    
C38   C62   A    
Cr4   O44   S    
