data_mof_unit_pretest_649.cif
_audit_creation_date              2013-03-05T16:06:16-0500
_audit_creation_method            fapswitch 2.2
_symmetry_space_group_name_H-M    P1
_symmetry_Int_Tables_number       1
_space_group_crystal_system       triclinic
_cell_length_a                    10.830079
_cell_length_b                    9.511289
_cell_length_c                    27.797934
_cell_angle_alpha                 89.882918
_cell_angle_beta                  90.049394
_cell_angle_gamma                 90.033285
_cell_volume                      2863.40237579

loop_
_atom_site_label
_atom_site_type_symbol
_atom_site_description
_atom_site_fract_x
_atom_site_fract_y
_atom_site_fract_z
_atom_type_partial_charge
O1    O     O_R   0.319640 0.618740 0.500000 -0.594955
O2    O     O_R   0.680360 0.381260 0.500000 -0.594867
O3    O     O_R   0.680360 0.618740 0.500000 -0.587102
O4    O     O_R   0.319640 0.381260 0.500000 -0.587073
C1    C     C_R   0.262040 0.499976 0.499938 0.782360
C2    C     C_R   0.737960 0.500023 0.500054 0.782357
O5    O     O_R   0.500020 0.618770 0.430260 -0.570621
O6    O     O_R   0.499980 0.381230 0.569740 -0.570483
O7    O     O_R   0.499980 0.618770 0.569740 -0.580003
O8    O     O_R   0.500020 0.381230 0.430260 -0.579381
C3    C     C_R   0.495979 0.500161 0.407617 0.822481
C4    C     C_R   0.504085 0.499838 0.592404 0.822801
Cu1   Cu    Cu3+1 0.500000 0.640660 0.500000 0.948282
Cu2   Cu    Cu3+1 0.500000 0.359340 0.500000 0.948404
C5    C     C_R   0.422574 0.408430 0.178068 0.548408
C6    C     C_R   0.582373 0.585168 0.821974 0.547826
O9    O     O_2   0.348195 0.320529 0.202887 -0.533803
O10   O     O_2   0.663205 0.665223 0.797116 -0.533933
N1    N     N_R   0.497887 0.499525 0.202234 -0.463826
N2    N     N_R   0.500404 0.501728 0.797844 -0.463711
C7    C     C_R   0.575045 0.589373 0.178338 0.544401
C8    C     C_R   0.416594 0.420096 0.821782 0.544977
C9    C     C_R   0.574603 0.414137 0.279936 -0.018004
C10   C     C_R   0.427465 0.590178 0.719981 -0.018464
C11   C     C_R   0.571853 0.414167 0.329948 -0.304053
C12   C     C_R   0.430659 0.589720 0.669973 -0.304336
C13   C     C_R   0.404253 0.585913 0.329242 0.140310
C14   C     C_R   0.592039 0.410458 0.671032 0.141046
C15   C     C_R   0.409261 0.589119 0.278261 0.190091
C16   C     C_R   0.585795 0.407049 0.721989 0.190119
C17   C     C_R   0.494575 0.501984 0.253887 0.280622
C18   C     C_R   0.503719 0.498488 0.746194 0.280670
C19   C     C_R   0.499609 0.499183 0.102051 -0.044687
C20   C     C_R   0.498591 0.502936 0.898029 -0.044626
C21   C     C_R   0.421937 0.406637 0.127584 -0.024637
C22   C     C_R   0.583048 0.587279 0.872456 -0.024717
C23   C     C_R   0.345521 0.314474 0.102349 -0.140321
C24   C     C_R   0.667025 0.670598 0.897649 -0.141005
C25   C     C_R   0.577235 0.591012 0.127843 -0.025624
C26   C     C_R   0.414246 0.419001 0.872278 -0.025312
C27   C     C_R   0.489364 0.500461 0.354869 -0.077676
C28   C     C_R   0.510290 0.499602 0.645200 -0.079418
H1    H     H_    0.286186 0.240917 0.121152 0.188250
H2    H     H_    0.733766 0.735295 0.878812 0.188498
C29   C     C_R   0.414843 0.413756 0.974377 0.040772
C30   C     C_R   0.580287 0.592239 0.025721 0.040965
C31   C     C_R   0.582780 0.589907 0.974567 0.041370
C32   C     C_R   0.418332 0.408968 0.025497 0.041047
C33   C     C_R   0.498686 0.502268 0.949210 0.069410
C34   C     C_R   0.499456 0.500091 0.050870 0.069386
C35   C     C_R   0.329482 0.333461 0.947263 -0.202023
C36   C     C_R   0.655683 0.684398 0.052897 -0.202008
C37   C     C_R   0.329643 0.335957 0.897318 -0.138156
C38   C     C_R   0.654195 0.683307 0.102844 -0.138756
O11   O     O_2   0.336570 0.339651 0.796743 -0.529059
O12   O     O_2   0.648674 0.677258 0.203421 -0.528626
C39   C     C_R   0.343818 0.315077 0.052409 -0.202029
C40   C     C_R   0.667296 0.671893 0.947592 -0.201798
H3    H     H_    0.369289 0.658830 0.650093 0.170396
H4    H     H_    0.635858 0.347954 0.349721 0.169078
H5    H     H_    0.262707 0.271944 0.878358 0.189504
H6    H     H_    0.713772 0.756046 0.121839 0.189929
H7    H     H_    0.259420 0.268506 0.963401 0.141452
H8    H     H_    0.716128 0.761000 0.036837 0.141502
H9    H     H_    0.283869 0.238491 0.036113 0.141394
H10   H     H_    0.736919 0.737167 0.963810 0.141211
C41   C     C_R   0.063789 0.372329 0.501959 -0.174037
C42   C     C_R   0.936212 0.627669 0.497998 -0.174130
C43   C     C_R   0.936064 0.372364 0.502087 -0.183354
C44   C     C_R   0.063938 0.627633 0.497869 -0.183229
H11   H     H_    0.111794 0.272539 0.503578 0.150856
H12   H     H_    0.888208 0.727458 0.496379 0.150904
H13   H     H_    0.887945 0.272597 0.503812 0.149682
H14   H     H_    0.112058 0.727399 0.496142 0.149676
C45   C     C_R   0.871786 0.500033 0.500079 -0.018174
C46   C     C_R   0.128215 0.499965 0.499888 -0.018073
C47   C     C_R   0.420907 0.074556 0.471059 -0.016074
C48   C     C_R   0.579097 0.925442 0.528938 -0.016792
C49   C     C_R   0.579119 0.074319 0.528928 -0.017179
C50   C     C_R   0.420904 0.925674 0.471060 -0.016378
H15   H     H_    0.357582 0.130809 0.447876 0.123667
H16   H     H_    0.642429 0.869191 0.552119 0.123641
H17   H     H_    0.642541 0.130349 0.552061 0.119716
H18   H     H_    0.357538 0.869632 0.447901 0.119918
N3    N     N_R   0.500000 0.852070 0.500000 -0.158754
N4    N     N_R   0.500000 0.147930 0.500000 -0.158649
C51   C     C_3   0.305581 0.669804 0.355202 -0.845889
H19   H     H_    0.213669 0.648594 0.339129 0.236973
H20   H     H_    0.296112 0.641749 0.393673 0.225269
H21   H     H_    0.326285 0.783824 0.352359 0.235747
C52   C     C_3   0.688554 0.322798 0.645316 -0.844074
H22   H     H_    0.780279 0.337561 0.662364 0.237319
H23   H     H_    0.662713 0.209950 0.647007 0.235091
H24   H     H_    0.701751 0.353303 0.607222 0.225303
C53   C     C_3   0.322926 0.684200 0.250205 -0.777248
H25   H     H_    0.333040 0.794239 0.262849 0.239211
H26   H     H_    0.341242 0.684732 0.211011 0.229038
H27   H     H_    0.225999 0.649439 0.255314 0.234885
C54   C     C_3   0.667317 0.307048 0.750223 -0.778085
H28   H     H_    0.646538 0.305411 0.789232 0.229093
H29   H     H_    0.654300 0.198097 0.736895 0.238097
H30   H     H_    0.765588 0.337839 0.746129 0.236560
C55   C     C_1   0.344505 0.685187 0.744238 0.297854
N5    N     N_1   0.278047 0.761326 0.763740 -0.255257
C56   C     C_1   0.661105 0.323725 0.255501 0.298343
N6    N     N_1   0.730403 0.251268 0.235855 -0.255696

loop_
_geom_bond_atom_site_label_1
_geom_bond_atom_site_label_2
_geom_bond_distance
_ccdc_geom_bond_type
C16   C18   1.415471 A    
C51   H19   1.109300 S    
C36   H8    1.075775 S    
C48   H16   1.081742 S    
C13   C15   1.418521 A    
C53   H25   1.110050 S    
C50   H18   1.081548 S    
O3    C2    1.290324 A    
N1    C17   1.436548 S    
C53   H27   1.109533 S    
C32   C39   1.416281 A    
C31   C33   1.421799 A    
C42   C45   1.400974 A    
C5    N1    1.366713 A    
C19   C25   1.408662 A    
O1    C1    1.290087 A    
C21   C23   1.395006 A    
C10   C12   1.390601 A    
C29   C32   1.422140 A    
C25   C38   1.394936 A    
C29   C35   1.416428 A    
C9    C56   1.443234 S    
C30   C36   1.416543 A    
C14   C28   1.419743 A    
O7    Cu1   1.949353 S    
C4    C28   1.469080 S    
C24   C40   1.388373 A    
C37   H5    1.083570 S    
C40   H10   1.075755 S    
C44   H14   1.083327 S    
C43   H13   1.083328 S    
C11   H4    1.085208 S    
C47   H15   1.081742 S    
C12   H3    1.085176 S    
C20   C22   1.408360 A    
O3    Cu1   1.964528 S    
C6    N2    1.366798 A    
C32   C34   1.421649 A    
Cu1   Cu2   2.675716 S    
O2    C2    1.290083 A    
C5    C21   1.403486 A    
C36   C38   1.388543 A    
C2    C45   1.449345 S    
C35   H7    1.075917 S    
Cu2   N4    2.010783 S    
O8    Cu2   1.949353 S    
C11   C27   1.398536 A    
C52   H22   1.109253 S    
C15   C53   1.515634 S    
C48   C49   1.416014 A    
C38   H6    1.083597 S    
C19   C34   1.422723 A    
C16   C54   1.515544 S    
C42   H12   1.083288 S    
C35   C37   1.388530 A    
C9    C17   1.403895 A    
C23   H1    1.083593 S    
O5    C3    1.293661 A    
C10   C18   1.403815 A    
C24   H2    1.083579 S    
C50   N3    1.366851 A    
C52   H23   1.109964 S    
C13   C27   1.419531 A    
C54   H28   1.107733 S    
C7    C25   1.403929 A    
C29   C33   1.421425 A    
O6    C4    1.293964 A    
C8    C26   1.403937 A    
C13   C51   1.517913 S    
C48   N3    1.366866 A    
C6    O10   1.349697 S    
C54   H29   1.110088 S    
N2    C8    1.366599 A    
C47   N4    1.366897 A    
C51   H20   1.106502 S    
C44   C46   1.401018 A    
C20   C26   1.408737 A    
O1    Cu1   1.964288 S    
C43   C45   1.401021 A    
C12   C28   1.398921 A    
N2    C18   1.436645 S    
C47   C50   1.416057 A    
C5    O9    1.349698 S    
C30   C31   1.422476 A    
C20   C33   1.422724 A    
O6    Cu2   1.950199 S    
N1    C7    1.366613 A    
C39   H9    1.075931 S    
O4    C1    1.290317 A    
C7    O12   1.349594 S    
C53   H26   1.107606 S    
C8    O11   1.349579 S    
C56   N6    1.157272 T    
C30   C34   1.421590 A    
C10   C55   1.443255 S    
C1    C46   1.449334 S    
C22   C24   1.394974 A    
C15   C17   1.415585 A    
C6    C22   1.403492 A    
C52   H24   1.106745 S    
C49   H17   1.081436 S    
C14   C16   1.418477 A    
C19   C21   1.408478 A    
C3    C27   1.467964 S    
C14   C52   1.517731 S    
C41   H11   1.083288 S    
C9    C11   1.390581 A    
O4    Cu2   1.964528 S    
O2    Cu2   1.964288 S    
O7    C4    1.294451 A    
O8    C3    1.294139 A    
O5    Cu1   1.950199 S    
C54   H30   1.109559 S    
C42   C44   1.383292 A    
C26   C37   1.394967 A    
C51   H21   1.109960 S    
Cu1   N3    2.010782 S    
C55   N5    1.157252 T    
C41   C46   1.400969 A    
C41   C43   1.383287 A    
C49   N4    1.366833 A    
C23   C39   1.388344 A    
C31   C40   1.416375 A    
