data_mof_unit_pretest_1711.cif
_audit_creation_date              2012-12-10T19:23:47-0500
_audit_creation_method            fapswitch 2.2
_symmetry_space_group_name_H-M    P1
_symmetry_Int_Tables_number       1
_space_group_crystal_system       triclinic
_cell_length_a                    44.599219
_cell_length_b                    38.885223
_cell_length_c                    21.629354
_cell_angle_alpha                 90.035326
_cell_angle_beta                  60.585308
_cell_angle_gamma                 89.953566
_cell_volume                      32675.101223

loop_
_atom_site_label
_atom_site_type_symbol
_atom_type_description
_atom_site_fract_x
_atom_site_fract_y
_atom_site_fract_z
_atom_type_partial_charge
C1    C     C_R   0.067218 0.499949 0.434601 0.980854
C2    C     C_R   0.932783 0.499988 0.565391 0.980855
C3    C     C_R   0.567331 0.999888 0.432147 0.967666
C4    C     C_R   0.432784 0.999991 0.565371 0.976745
C5    C     C_R   0.000305 0.498894 0.813953 -0.301810
C6    C     C_R   0.999698 0.498873 0.186039 -0.301737
C7    C     C_R   0.500303 0.998951 0.813996 -0.301385
C8    C     C_R   0.499906 0.999011 0.185787 -0.302042
C9    C     C_R   0.018756 0.473744 0.762596 0.005083
C10   C     C_R   0.981316 0.473719 0.237271 0.005128
C11   C     C_R   0.518510 0.973621 0.762927 0.001982
C12   C     C_R   0.482481 0.973202 0.236015 0.007417
C13   C     C_R   0.018515 0.474752 0.698843 0.653261
C14   C     C_R   0.981574 0.474712 0.301009 0.653316
C15   C     C_R   0.518246 0.974595 0.699202 0.654556
C16   C     C_R   0.483004 0.974009 0.299434 0.654766
C17   C     C_R   0.999695 0.500401 0.687154 -0.361826
C18   C     C_R   0.000340 0.500353 0.312809 -0.361828
C19   C     C_R   0.499658 0.000405 0.687233 -0.364679
C20   C     C_R   0.500726 0.000384 0.312355 -0.360291
C21   C     C_R   0.981062 0.525544 0.739448 -0.063482
C22   C     C_R   0.018916 0.525491 0.260622 -0.063427
C23   C     C_R   0.481258 0.025726 0.739292 -0.061228
C24   C     C_R   0.518244 0.026362 0.261272 -0.058174
C25   C     C_R   0.071490 0.448153 0.757269 0.473523
C26   C     C_R   0.928660 0.448205 0.242281 0.473277
C27   C     C_R   0.570944 0.947778 0.758556 0.471523
C28   C     C_R   0.430470 0.947322 0.238744 0.467824
C29   C     C_R   0.088128 0.421096 0.770937 0.535235
C30   C     C_R   0.912070 0.421150 0.228535 0.535563
C31   C     C_R   0.587343 0.920636 0.772641 0.537511
C32   C     C_R   0.414198 0.919969 0.224997 0.540724
C33   C     C_R   0.070184 0.390876 0.802822 0.504742
C34   C     C_R   0.930035 0.390867 0.196782 0.504858
C35   C     C_R   0.569237 0.890459 0.804289 0.506323
C36   C     C_R   0.432214 0.889465 0.195207 0.500198
C37   C     C_R   0.035607 0.387652 0.821062 -0.497602
C38   C     C_R   0.964586 0.387577 0.178749 -0.498085
C39   C     C_R   0.534731 0.887367 0.821909 -0.492325
C40   C     C_R   0.466506 0.886263 0.179096 -0.504292
C41   C     C_R   0.018722 0.414739 0.808339 0.548959
C42   C     C_R   0.981424 0.414660 0.191548 0.549428
C43   C     C_R   0.518080 0.914539 0.808774 0.557250
C44   C     C_R   0.483043 0.913637 0.191894 0.558619
C45   C     C_R   0.999566 0.500100 0.620788 0.963497
C46   C     C_R   0.000444 0.500082 0.379201 0.963319
C47   C     C_R   0.499547 0.000102 0.620821 0.956928
C48   C     C_R   0.500626 0.000095 0.378999 0.958657
C49   C     C_R   0.036620 0.445150 0.776286 -0.184556
C50   C     C_R   0.963505 0.445136 0.223467 -0.184615
C51   C     C_R   0.536147 0.944904 0.776921 -0.183229
C52   C     C_R   0.465077 0.944347 0.221813 -0.187451
C53   C     C_R   0.376623 0.517255 0.079770 0.487275
C54   C     C_R   0.623291 0.517382 0.920365 0.487194
C55   C     C_R   0.877307 0.015942 0.074409 0.499489
C56   C     C_R   0.123299 0.017345 0.920397 0.486982
C57   C     C_R   0.340826 0.516955 0.117330 0.539949
C58   C     C_R   0.659089 0.517151 0.882824 0.539965
C59   C     C_R   0.841542 0.016176 0.110521 0.543002
C60   C     C_R   0.159098 0.017125 0.882835 0.539941
C61   C     C_R   0.323590 0.497852 0.180053 -0.309500
C62   C     C_R   0.676417 0.498073 0.819988 -0.309543
C63   C     C_R   0.823539 0.000596 0.177189 -0.232890
C64   C     C_R   0.176424 0.998098 0.819928 -0.309532
C65   C     C_R   0.342105 0.479072 0.205353 0.541897
C66   C     C_R   0.657994 0.479258 0.794541 0.541995
C67   C     C_R   0.841210 0.984614 0.207803 0.520422
C68   C     C_R   0.157997 0.979320 0.794438 0.541976
C69   C     C_R   0.377875 0.479778 0.168570 0.481280
C70   C     C_R   0.622220 0.479896 0.831307 0.481390
C71   C     C_R   0.876975 0.984600 0.172181 0.485170
C72   C     C_R   0.122223 0.979945 0.831229 0.481486
C73   C     C_R   0.395305 0.498909 0.105609 -0.520833
C74   C     C_R   0.604699 0.498991 0.894396 -0.520955
C75   C     C_R   0.895242 0.000237 0.105179 -0.517176
C76   C     C_R   0.104703 0.998993 0.894385 -0.520862
C77   C     C_R   0.269038 0.527785 0.259693 0.366749
C78   C     C_R   0.730887 0.528040 0.740560 0.366844
C79   C     C_R   0.768403 0.023361 0.272875 0.337309
C80   C     C_R   0.230886 0.028118 0.740637 0.366782
C81   C     C_R   0.233139 0.528337 0.298101 0.555830
C82   C     C_R   0.766785 0.528598 0.702155 0.555847
C83   C     C_R   0.732386 0.024068 0.308038 0.538287
C84   C     C_R   0.266784 0.028685 0.702202 0.555652
C85   C     C_R   0.214345 0.499168 0.299238 -0.065096
C86   C     C_R   0.785658 0.499433 0.700879 -0.065169
C87   C     C_R   0.714511 0.001231 0.287717 -0.031612
C88   C     C_R   0.285666 0.999490 0.700731 -0.065441
C89   C     C_R   0.953544 0.609577 0.694687 0.531108
C90   C     C_R   0.046358 0.609511 0.305527 0.530981
C91   C     C_R   0.454350 0.109941 0.693850 0.532926
C92   C     C_R   0.534403 0.112450 0.320648 0.530126
C93   C     C_R   0.231571 0.469541 0.261644 -0.286291
C94   C     C_R   0.768513 0.469814 0.738379 -0.286209
C95   C     C_R   0.732337 0.978690 0.230803 -0.334752
C96   C     C_R   0.268530 0.969834 0.738065 -0.286627
C97   C     C_R   0.267313 0.469126 0.221080 0.499344
C98   C     C_R   0.732773 0.469394 0.778938 0.499382
C99   C     C_R   0.768246 0.979118 0.192507 0.486157
C100  C     C_R   0.232792 0.969402 0.778660 0.499463
C101  C     C_R   0.286076 0.498291 0.220489 -0.039948
C102  C     C_R   0.713930 0.498543 0.779625 -0.039917
C103  C     C_R   0.786077 0.000968 0.214948 0.022007
C104  C     C_R   0.213938 0.998581 0.779541 -0.040092
C105  C     C_R   0.157787 0.473219 0.383691 0.559564
C106  C     C_R   0.842234 0.473423 0.616261 0.559484
C107  C     C_R   0.659489 0.970041 0.354860 0.549606
C108  C     C_R   0.342244 0.973536 0.615949 0.559056
C109  C     C_R   0.121858 0.472599 0.415122 0.295883
C110  C     C_R   0.878161 0.472740 0.584811 0.295885
C111  C     C_R   0.623603 0.968687 0.386015 0.315970
C112  C     C_R   0.378173 0.972828 0.584548 0.294543
C113  C     C_R   0.104781 0.499824 0.401944 -0.387512
C114  C     C_R   0.895221 0.499948 0.598022 -0.387455
C115  C     C_R   0.605135 0.999559 0.393636 -0.395403
C116  C     C_R   0.395226 0.999969 0.597958 -0.385875
C117  C     C_R   0.123835 0.527259 0.358144 0.545910
C118  C     C_R   0.876151 0.527436 0.641848 0.545740
C119  C     C_R   0.623217 0.030307 0.363854 0.552298
C120  C     C_R   0.376157 0.027426 0.641899 0.545979
C121  C     C_R   0.159489 0.526777 0.324602 -0.196530
C122  C     C_R   0.840495 0.527011 0.675421 -0.196514
C123  C     C_R   0.658879 0.030620 0.329109 -0.218892
C124  C     C_R   0.340502 0.027017 0.675435 -0.198047
C125  C     C_R   0.176648 0.499809 0.336917 -0.105153
C126  C     C_R   0.823354 0.500050 0.663103 -0.105129
C127  C     C_R   0.677014 0.000724 0.325214 -0.089948
C128  C     C_R   0.323363 0.000113 0.662948 -0.104503
C129  C     C_R   0.000021 0.432751 0.999979 0.986431
C130  C     C_R   0.500028 0.932748 0.000073 0.980883
C131  C     C_R   0.974250 0.582851 0.695726 -0.366699
C132  C     C_R   0.025674 0.582808 0.304453 -0.366522
C133  C     C_R   0.474864 0.083095 0.695193 -0.366291
C134  C     C_R   0.517674 0.083736 0.313279 -0.381978
C135  C     C_R   0.000110 0.499039 0.879956 0.944881
C136  C     C_R   0.999891 0.499028 0.120038 0.944681
C137  C     C_R   0.500109 0.999090 0.879970 0.944880
C138  C     C_R   0.499925 0.999179 0.119997 0.944099
C139  C     C_R   0.999981 0.567257 0.000009 0.924158
C140  C     C_R   0.499976 0.067263 0.999943 0.924129
C141  C     C_R   0.499998 0.432778 0.999984 0.985333
C142  C     C_R   0.000006 0.932780 0.999977 0.983591
C143  C     C_R   0.432807 0.499766 0.067390 1.050573
C144  C     C_R   0.567193 0.499776 0.932611 1.050581
C145  C     C_R   0.932787 0.000028 0.067359 1.041688
C146  C     C_R   0.067195 0.999775 0.932609 1.050810
C147  C     C_R   0.500011 0.567167 0.000026 0.861281
C148  C     C_R   0.000014 0.067167 0.000003 0.858611
C149  C     C_R   0.499290 0.622796 0.057233 -0.174268
C150  C     C_R   0.501021 0.623035 0.943248 -0.175116
C151  C     C_R   0.999095 0.122918 0.057109 -0.172437
C152  C     C_R   0.001142 0.122916 0.942819 -0.177069
C153  C     C_R   0.499391 0.658527 0.057407 -0.067804
C154  C     C_R   0.501172 0.658786 0.943462 -0.068348
C155  C     C_R   0.999133 0.158660 0.057069 -0.067218
C156  C     C_R   0.001239 0.158658 0.942811 -0.068946
C157  C     C_R   0.500339 0.676609 0.000548 0.212706
C158  C     C_R   0.000214 0.176610 0.999934 0.213139
C159  C     C_R   0.500091 0.604792 0.000150 -0.036679
C160  C     C_R   0.000077 0.104793 0.999983 -0.036508
C161  C     C_R   0.526957 0.732201 0.944203 0.559663
C162  C     C_R   0.473984 0.732193 0.057901 0.557795
C163  C     C_R   0.026837 0.232155 0.943338 0.558491
C164  C     C_R   0.973619 0.232239 0.056579 0.559103
C165  C     C_R   0.959278 0.552269 0.732306 -0.067863
C166  C     C_R   0.040673 0.552189 0.267832 -0.067734
C167  C     C_R   0.459674 0.052612 0.731955 -0.067731
C168  C     C_R   0.536672 0.055492 0.272108 -0.041115
C169  C     C_R   0.026781 0.267894 0.943493 -0.200548
C170  C     C_R   0.973652 0.267975 0.056405 -0.200391
C171  C     C_R   0.526965 0.767939 0.944663 -0.199251
C172  C     C_R   0.474086 0.767928 0.058039 -0.198126
C173  C     C_R   0.000206 0.285816 0.999937 0.018755
C174  C     C_R   0.500530 0.785814 0.001462 0.017416
C175  C     C_R   0.500425 0.714171 0.000867 -0.226060
C176  C     C_R   0.000230 0.214172 0.999958 -0.226481
C177  C     C_R   0.027636 0.341347 0.999336 0.363666
C178  C     C_R   0.972663 0.341313 0.000469 0.363673
C179  C     C_R   0.527892 0.841496 0.000123 0.365875
C180  C     C_R   0.472715 0.841145 0.002133 0.367990
C181  C     C_R   0.027949 0.377173 0.997436 0.541967
C182  C     C_R   0.972253 0.377140 0.002407 0.542037
C183  C     C_R   0.528134 0.877320 0.997755 0.538683
C184  C     C_R   0.472245 0.876978 0.003612 0.541485
C185  C     C_R   0.000075 0.395216 0.999941 -0.510579
C186  C     C_R   0.500131 0.895210 0.000467 -0.511999
C187  C     C_R   0.000171 0.323371 0.999903 -0.272325
C188  C     C_R   0.500364 0.823365 0.001334 -0.269528
C189  C     C_R   0.517901 0.377357 0.027915 0.562977
C190  C     C_R   0.482015 0.377431 0.972011 0.562891
C191  C     C_R   0.018190 0.877379 0.027307 0.562044
C192  C     C_R   0.981775 0.877429 0.972616 0.562707
C193  C     C_R   0.517994 0.341673 0.027440 -0.206436
C194  C     C_R   0.481864 0.341747 0.972469 -0.206422
C195  C     C_R   0.018290 0.841692 0.026845 -0.206712
C196  C     C_R   0.981610 0.841743 0.973141 -0.205808
C197  C     C_R   0.499915 0.323803 0.999948 0.022511
C198  C     C_R   0.999933 0.823805 0.000011 0.022049
C199  C     C_R   0.923142 0.548909 0.769294 0.337033
C200  C     C_R   0.076812 0.548770 0.230830 0.337058
C201  C     C_R   0.423520 0.049484 0.768867 0.337114
C202  C     C_R   0.572983 0.056660 0.236121 0.330129
C203  C     C_R   0.499974 0.395402 0.999965 -0.325547
C204  C     C_R   0.999996 0.895407 0.999953 -0.327278
C205  C     C_R   0.488667 0.268310 0.064109 0.342760
C206  C     C_R   0.511098 0.268274 0.935711 0.342974
C207  C     C_R   0.989100 0.768311 0.064078 0.342849
C208  C     C_R   0.010693 0.768250 0.935971 0.342982
C209  C     C_R   0.990595 0.732453 0.063098 0.469594
C210  C     C_R   0.009155 0.732398 0.936961 0.469918
C211  C     C_R   0.490161 0.232454 0.063143 0.470122
C212  C     C_R   0.509582 0.232423 0.936621 0.469840
C213  C     C_R   0.999866 0.714479 0.000031 -0.263102
C214  C     C_R   0.499872 0.214494 0.999865 -0.263552
C215  C     C_R   0.499891 0.286232 0.999923 -0.235005
C216  C     C_R   0.999907 0.786226 0.000022 -0.234669
C217  C     C_R   0.028835 0.659005 0.950066 -0.186708
C218  C     C_R   0.970958 0.659055 0.049967 -0.186220
C219  C     C_R   0.528996 0.159021 0.950507 -0.186472
C220  C     C_R   0.470759 0.159089 0.049079 -0.185638
C221  C     C_R   0.028661 0.623153 0.947698 0.414521
C222  C     C_R   0.971193 0.623203 0.052319 0.414443
C223  C     C_R   0.528825 0.123172 0.948078 0.415548
C224  C     C_R   0.470943 0.123241 0.051453 0.415094
C225  C     C_R   0.999942 0.604970 0.000009 -0.226482
C226  C     C_R   0.499916 0.104987 0.999834 -0.226979
C227  C     C_R   0.999883 0.676917 0.000017 0.152627
C228  C     C_R   0.499880 0.176938 0.999830 0.152519
C229  C     C_R   0.902508 0.576332 0.769988 0.503505
C230  C     C_R   0.097422 0.576169 0.230167 0.503820
C231  C     C_R   0.403078 0.077026 0.769251 0.503414
C232  C     C_R   0.589571 0.086530 0.241318 0.444444
C233  C     C_R   0.917710 0.606387 0.731980 0.537931
C234  C     C_R   0.082195 0.606261 0.268222 0.537718
C235  C     C_R   0.418495 0.106973 0.731026 0.536378
C236  C     C_R   0.570295 0.113889 0.284602 0.541782
C237  C     C_R   0.981534 0.524388 0.802847 0.607242
C238  C     C_R   0.018424 0.524351 0.197245 0.607063
C239  C     C_R   0.481741 0.024590 0.802680 0.606736
C240  C     C_R   0.517908 0.025070 0.197696 0.608965
H1    H     H_    0.021835 0.364190 0.845450 0.199616
H2    H     H_    0.978374 0.364067 0.154459 0.199665
H3    H     H_    0.520829 0.863945 0.846155 0.199403
H4    H     H_    0.480317 0.862580 0.156333 0.199468
H5    H     H_    0.217188 0.446977 0.262268 0.203866
H6    H     H_    0.782956 0.447255 0.737661 0.203761
H7    H     H_    0.718224 0.961075 0.215815 0.195075
H8    H     H_    0.282980 0.947252 0.737199 0.203838
H9    H     H_    0.173761 0.547421 0.288451 0.257181
H10   H     H_    0.826209 0.547687 0.711615 0.257245
H11   H     H_    0.672437 0.054272 0.305105 0.245143
H12   H     H_    0.326215 0.047655 0.711744 0.257135
H13   H     H_    0.498609 0.609327 0.101714 0.179134
H14   H     H_    0.501621 0.609741 0.898643 0.178901
H15   H     H_    0.998303 0.109537 0.101782 0.179056
H16   H     H_    0.001887 0.109533 0.898160 0.178640
H17   H     H_    0.498993 0.672102 0.101565 0.165982
H18   H     H_    0.501663 0.672575 0.899464 0.165867
H19   H     H_    0.998579 0.172344 0.101268 0.165577
H20   H     H_    0.001833 0.172341 0.898603 0.165160
H21   H     H_    0.047327 0.281654 0.899606 0.228724
H22   H     H_    0.953093 0.281798 0.100276 0.229065
H23   H     H_    0.547409 0.781736 0.900661 0.229757
H24   H     H_    0.453619 0.781715 0.102151 0.230393
H25   H     H_    0.001942 0.586019 0.668562 0.229203
H26   H     H_    0.997980 0.586023 0.331619 0.229186
H27   H     H_    0.502576 0.086085 0.668101 0.230236
H28   H     H_    0.489811 0.083383 0.339817 0.229207
H29   H     H_    0.532420 0.327921 0.047856 0.217837
H30   H     H_    0.467417 0.328055 0.952044 0.217826
H31   H     H_    0.032933 0.827955 0.046768 0.217858
H32   H     H_    0.966946 0.828047 0.953233 0.218590
H33   H     H_    0.051575 0.672852 0.912196 0.182089
H34   H     H_    0.948201 0.672941 0.087857 0.182298
H35   H     H_    0.551862 0.172865 0.913138 0.181953
H36   H     H_    0.447867 0.172987 0.086388 0.182052
O1    O     O_R   0.050910 0.528730 0.449120 -0.562848
O2    O     O_R   0.949090 0.528730 0.550880 -0.562966
O3    O     O_R   0.550910 0.028730 0.449120 -0.562020
O4    O     O_R   0.449090 0.028730 0.550880 -0.562599
O5    O     O_R   0.449080 0.499920 0.102620 -0.587928
O6    O     O_R   0.550920 0.499920 0.897380 -0.587852
O7    O     O_R   0.949080 0.999920 0.102620 -0.583770
O8    O     O_R   0.050920 0.999920 0.897380 -0.588033
O9    O     O_R   0.449080 0.499990 0.999170 -0.565910
O10   O     O_R   0.550920 0.499990 0.000830 -0.566058
O11   O     O_R   0.949080 0.999990 0.999170 -0.559753
O12   O     O_R   0.050920 0.999990 0.000830 -0.565842
O13   O     O_R   0.500000 0.550830 0.051830 -0.626649
O14   O     O_R   0.500000 0.550830 0.948170 -0.626162
O15   O     O_R   0.000000 0.050830 0.051830 -0.625807
O16   O     O_R   0.000000 0.050830 0.948170 -0.627165
O17   O     O_R   0.050890 0.471250 0.449130 -0.628146
O18   O     O_R   0.949110 0.471250 0.550870 -0.628100
O19   O     O_R   0.550890 0.971250 0.449130 -0.596016
O20   O     O_R   0.449110 0.971250 0.550870 -0.629077
O21   O     O_R   0.000000 0.528730 0.591620 -0.627827
O22   O     O_R   0.000000 0.528730 0.408380 -0.627826
O23   O     O_R   0.500000 0.028730 0.591620 -0.626644
O24   O     O_R   0.500000 0.028730 0.408380 -0.633865
O25   O     O_R   0.999980 0.471250 0.591630 -0.580549
O26   O     O_R   0.000020 0.471250 0.408370 -0.580394
O27   O     O_R   0.499980 0.971250 0.591630 -0.567743
O28   O     O_R   0.500020 0.971250 0.408370 -0.583367
O29   O     O_R   0.971250 0.449060 0.028730 -0.579805
O30   O     O_R   0.028750 0.449060 0.971270 -0.579986
O31   O     O_R   0.471250 0.949060 0.028730 -0.578212
O32   O     O_R   0.528750 0.949060 0.971270 -0.580120
O33   O     O_R   0.971250 0.499970 0.937120 -0.546039
O34   O     O_R   0.028750 0.499970 0.062880 -0.546178
O35   O     O_R   0.471250 0.999970 0.937120 -0.546647
O36   O     O_R   0.528750 0.999970 0.062880 -0.550952
O37   O     O_R   0.028730 0.499980 0.879660 -0.651274
O38   O     O_R   0.971270 0.499980 0.120340 -0.650830
O39   O     O_R   0.528730 0.999980 0.879660 -0.650621
O40   O     O_R   0.471270 0.999980 0.120340 -0.645764
O41   O     O_R   0.971250 0.550880 0.028740 -0.570982
O42   O     O_R   0.028750 0.550880 0.971260 -0.570824
O43   O     O_R   0.471250 0.050880 0.028740 -0.571727
O44   O     O_R   0.528750 0.050880 0.971260 -0.571219
O45   O     O_R   0.499970 0.449010 0.051630 -0.569826
O46   O     O_R   0.500030 0.449010 0.948370 -0.570092
O47   O     O_R   0.999970 0.949010 0.051630 -0.572819
O48   O     O_R   0.000030 0.949010 0.948370 -0.568988
Zn1   Zn    Zn3+2 0.000000 0.538370 0.500000 1.102377
Zn2   Zn    Zn3+2 0.500000 0.038370 0.500000 1.104261
Zn3   Zn    Zn3+2 0.000000 0.461610 0.500000 0.994031
Zn4   Zn    Zn3+2 0.500000 0.961610 0.500000 1.024849
Zn5   Zn    Zn3+2 0.961610 0.499970 0.038370 1.135104
Zn6   Zn    Zn3+2 0.038390 0.499970 0.961630 1.134605
Zn7   Zn    Zn3+2 0.461610 0.999970 0.038370 1.137479
Zn8   Zn    Zn3+2 0.538390 0.999970 0.961630 1.128543
Zn9   Zn    Zn3+2 0.499990 0.499910 0.069080 1.125751
Zn10  Zn    Zn3+2 0.500010 0.499910 0.930920 1.126010
Zn11  Zn    Zn3+2 0.999990 0.999910 0.069080 1.125384
Zn12  Zn    Zn3+2 0.000010 0.999910 0.930920 1.129115
F1    F     F_    0.897654 0.632609 0.731922 -0.513429
F2    F     F_    0.102228 0.632460 0.268313 -0.513524
F3    F     F_    0.398627 0.133310 0.730666 -0.512020
F4    F     F_    0.586474 0.142319 0.289968 -0.513262
F5    F     F_    0.086281 0.364652 0.816083 -0.556806
F6    F     F_    0.913984 0.364644 0.183451 -0.556501
F7    F     F_    0.585106 0.864150 0.817934 -0.557585
F8    F     F_    0.416455 0.862934 0.181964 -0.558726
F9    F     F_    0.985018 0.411357 0.827116 -0.624986
F10   F     F_    0.015103 0.411213 0.172977 -0.625375
F11   F     F_    0.484433 0.911294 0.827007 -0.622222
F12   F     F_    0.516468 0.910242 0.175285 -0.626185
F13   F     F_    0.392991 0.536246 0.019515 -0.573869
F14   F     F_    0.606831 0.536348 0.980739 -0.573887
F15   F     F_    0.894326 0.031774 0.010329 -0.572768
F16   F     F_    0.106843 0.036265 0.980836 -0.574097
F17   F     F_    0.322894 0.535251 0.092785 -0.575264
F18   F     F_    0.676932 0.535482 0.907509 -0.575206
F19   F     F_    0.824389 0.031854 0.080989 -0.600248
F20   F     F_    0.176943 0.035416 0.907570 -0.575376
F21   F     F_    0.325441 0.460620 0.266294 -0.573296
F22   F     F_    0.674748 0.460830 0.733488 -0.573198
F23   F     F_    0.823773 0.968585 0.271554 -0.607275
F24   F     F_    0.174749 0.960943 0.733316 -0.573367
F25   F     F_    0.395463 0.461312 0.193702 -0.576674
F26   F     F_    0.604721 0.461396 0.806037 -0.576608
F27   F     F_    0.893670 0.968518 0.202266 -0.577501
F28   F     F_    0.104724 0.961480 0.805909 -0.576732
O49   O     O_3   0.287520 0.556751 0.257340 -0.563859
C241  C     C_3   0.293456 0.556006 0.315712 0.108490
H37   H     H_    0.305079 0.531055 0.318587 0.156946
H38   H     H_    0.268858 0.560068 0.366077 0.197019
C242  C     C_3   0.318448 0.584826 0.307193 -0.313894
H39   H     H_    0.342928 0.581149 0.256575 0.235944
H40   H     H_    0.307168 0.609995 0.305010 0.264256
C243  C     C_3   0.326127 0.585230 0.368599 -0.867476
H41   H     H_    0.302061 0.589366 0.419711 0.277548
H42   H     H_    0.344276 0.606464 0.360839 0.279091
H43   H     H_    0.338099 0.560533 0.370829 0.277549
O50   O     O_3   0.712323 0.556995 0.743031 -0.563776
C244  C     C_3   0.706405 0.556239 0.684635 0.108403
H44   H     H_    0.694860 0.531281 0.681626 0.156949
H45   H     H_    0.730997 0.560309 0.634302 0.197099
C245  C     C_3   0.681331 0.585046 0.693269 -0.313912
H46   H     H_    0.656856 0.581362 0.743855 0.236039
H47   H     H_    0.692533 0.610222 0.695585 0.264431
C246  C     C_3   0.673668 0.585437 0.631841 -0.866456
H48   H     H_    0.697728 0.589580 0.580761 0.277624
H49   H     H_    0.655458 0.606662 0.639687 0.279360
H50   H     H_    0.661773 0.560733 0.629479 0.277423
O51   O     O_3   0.786866 0.046236 0.290398 -0.604255
C247  C     C_3   0.782351 0.038355 0.358280 0.168636
H51   H     H_    0.779679 0.010154 0.369504 0.182807
H52   H     H_    0.759050 0.051696 0.399674 0.210702
C248  C     C_3   0.813681 0.051230 0.362404 -0.346907
H53   H     H_    0.837256 0.038482 0.320445 0.253303
H54   H     H_    0.816384 0.079439 0.352938 0.248623
C249  C     C_3   0.810385 0.043637 0.434695 -0.835722
H55   H     H_    0.787223 0.056542 0.477435 0.268443
H56   H     H_    0.833475 0.053399 0.435929 0.275703
H57   H     H_    0.808425 0.015481 0.444571 0.288002
O52   O     O_3   0.212314 0.057099 0.743293 -0.563649
C250  C     C_3   0.206366 0.056445 0.684933 0.108317
H58   H     H_    0.194811 0.031512 0.681826 0.156658
H59   H     H_    0.230947 0.060551 0.634595 0.196865
C251  C     C_3   0.181288 0.085281 0.693755 -0.313096
H60   H     H_    0.156825 0.081561 0.744349 0.235902
H61   H     H_    0.192500 0.110435 0.696171 0.264375
C252  C     C_3   0.173592 0.085782 0.632375 -0.868771
H62   H     H_    0.197639 0.089964 0.581292 0.277533
H63   H     H_    0.155380 0.107025 0.640359 0.279065
H64   H     H_    0.161687 0.061102 0.629917 0.277358
F29   F     F_    0.216769 0.557058 0.335156 -0.610019
F30   F     F_    0.783078 0.557315 0.665211 -0.610048
F31   F     F_    0.714869 0.046666 0.361940 -0.632151
F32   F     F_    0.283069 0.057440 0.665422 -0.609808
F33   F     F_    0.968266 0.638898 0.658625 -0.549944
F34   F     F_    0.031611 0.638868 0.341629 -0.550058
F35   F     F_    0.469280 0.139160 0.657594 -0.546290
F36   F     F_    0.515717 0.139302 0.361454 -0.549062
O53   O     O_3   0.283834 0.439462 0.185047 -0.585534
C253  C     C_3   0.291573 0.441773 0.113363 0.084455
H65   H     H_    0.316238 0.427942 0.080597 0.189093
H66   H     H_    0.295677 0.468650 0.092612 0.163430
C254  C     C_3   0.263407 0.424358 0.103497 -0.392276
H67   H     H_    0.259430 0.397678 0.124482 0.254542
H68   H     H_    0.238859 0.438749 0.133458 0.217581
C255  C     C_3   0.273006 0.423225 0.025401 -0.824344
H69   H     H_    0.276634 0.449700 0.003612 0.278557
H70   H     H_    0.252050 0.410637 0.020069 0.272572
H71   H     H_    0.297105 0.408281 0.994253 0.272758
O54   O     O_3   0.716335 0.439731 0.814848 -0.585593
C256  C     C_3   0.708585 0.442060 0.886544 0.084473
H72   H     H_    0.683968 0.428211 0.919246 0.189046
H73   H     H_    0.704387 0.468941 0.907411 0.163484
C257  C     C_3   0.736809 0.424688 0.896341 -0.392370
H74   H     H_    0.740883 0.398006 0.875234 0.254366
H75   H     H_    0.761307 0.439101 0.866454 0.217610
C258  C     C_3   0.727209 0.423571 0.974435 -0.824786
H76   H     H_    0.723485 0.450050 0.996347 0.278670
H77   H     H_    0.748208 0.411014 0.979718 0.272461
H78   H     H_    0.703163 0.408605 0.005508 0.272668
O55   O     O_3   0.786399 0.956452 0.136731 -0.612442
C259  C     C_3   0.778274 0.961522 0.081693 0.143561
H79   H     H_    0.802674 0.967024 0.032099 0.204132
H80   H     H_    0.760835 0.983814 0.090045 0.141820
C260  C     C_3   0.762627 0.928616 0.070825 -0.378933
H81   H     H_    0.781400 0.907179 0.056504 0.259126
H82   H     H_    0.739037 0.921668 0.120838 0.230364
C261  C     C_3   0.753326 0.933036 0.012168 -0.874407
H83   H     H_    0.733987 0.953878 0.026174 0.268657
H84   H     H_    0.742187 0.908729 0.005442 0.279736
H85   H     H_    0.776642 0.939374 0.961129 0.282154
O56   O     O_3   0.216366 0.939703 0.814415 -0.585377
C262  C     C_3   0.208625 0.941931 0.886117 0.084516
H86   H     H_    0.184027 0.928039 0.918750 0.189191
H87   H     H_    0.204397 0.968783 0.907141 0.163218
C263  C     C_3   0.236878 0.924537 0.895789 -0.392076
H88   H     H_    0.240983 0.897886 0.874522 0.254592
H89   H     H_    0.261357 0.938988 0.865978 0.217464
C264  C     C_3   0.227290 0.923309 0.973870 -0.825316
H90   H     H_    0.223535 0.949756 0.995939 0.278417
H91   H     H_    0.248309 0.910739 0.979062 0.272573
H92   H     H_    0.203264 0.908302 0.004864 0.272709
F37   F     F_    0.174172 0.448607 0.400610 -0.618264
F38   F     F_    0.825864 0.448822 0.599318 -0.618214
F39   F     F_    0.677239 0.941587 0.354781 -0.624255
F40   F     F_    0.325874 0.949025 0.598798 -0.618952
O57   O     O_3   0.103153 0.447913 0.465565 -0.537064
C265  C     C_3   0.104972 0.416418 0.431318 0.148183
H93   H     H_    0.130995 0.404775 0.409915 0.187523
H94   H     H_    0.099157 0.419999 0.387180 0.109964
C266  C     C_3   0.078385 0.391731 0.485303 -0.254963
H95   H     H_    0.084129 0.387289 0.529199 0.262015
H96   H     H_    0.052319 0.403404 0.508068 0.247754
C267  C     C_3   0.078534 0.357334 0.451166 -0.963646
H97   H     H_    0.072147 0.361142 0.408037 0.266259
H98   H     H_    0.058999 0.340026 0.491744 0.281002
H99   H     H_    0.104211 0.344916 0.429000 0.282774
O58   O     O_3   0.896878 0.448001 0.534338 -0.537156
C268  C     C_3   0.895092 0.416531 0.568551 0.147989
H100  H     H_    0.869061 0.404953 0.590065 0.187374
H101  H     H_    0.900968 0.420131 0.612603 0.110197
C269  C     C_3   0.921642 0.391755 0.514497 -0.254749
H102  H     H_    0.915821 0.387279 0.470712 0.261958
H103  H     H_    0.947711 0.403368 0.491590 0.247853
C270  C     C_3   0.921549 0.357390 0.548606 -0.963662
H104  H     H_    0.928029 0.361228 0.591599 0.266140
H105  H     H_    0.941043 0.340010 0.507969 0.281119
H106  H     H_    0.895863 0.345038 0.570945 0.282697
O59   O     O_3   0.606411 0.938168 0.415864 -0.544379
C271  C     C_3   0.612845 0.913431 0.362414 0.171888
H107  H     H_    0.610710 0.887560 0.385970 0.187283
H108  H     H_    0.639259 0.914803 0.315843 0.147868
C272  C     C_3   0.585979 0.916044 0.337857 -0.397276
H109  H     H_    0.559976 0.910865 0.383445 0.255084
H110  H     H_    0.586090 0.942366 0.317928 0.213943
C273  C     C_3   0.593269 0.890364 0.278727 -0.905187
H111  H     H_    0.618820 0.895537 0.231786 0.271463
H112  H     H_    0.573277 0.892843 0.262542 0.294125
H113  H     H_    0.592788 0.863669 0.297439 0.269299
O60   O     O_3   0.396907 0.948174 0.533873 -0.540146
C274  C     C_3   0.395016 0.916584 0.567790 0.146539
H114  H     H_    0.368953 0.905101 0.589184 0.188129
H115  H     H_    0.400899 0.919971 0.611885 0.111039
C275  C     C_3   0.421487 0.891833 0.513491 -0.256622
H116  H     H_    0.415719 0.887665 0.469546 0.262242
H117  H     H_    0.447607 0.903302 0.490864 0.248380
C276  C     C_3   0.421173 0.857278 0.547188 -0.954810
H118  H     H_    0.427575 0.860804 0.590366 0.267840
H119  H     H_    0.440624 0.839927 0.506388 0.281924
H120  H     H_    0.395437 0.845066 0.569195 0.281545
F41   F     F_    0.108031 0.554316 0.346655 -0.633549
F42   F     F_    0.891940 0.554477 0.653360 -0.633591
F43   F     F_    0.606601 0.060081 0.366968 -0.613062
F44   F     F_    0.391946 0.054409 0.653605 -0.632675
F45   F     F_    0.553054 0.715218 0.889211 -0.630098
F46   F     F_    0.447811 0.715210 0.112578 -0.630934
F47   F     F_    0.053084 0.215129 0.888727 -0.631104
F48   F     F_    0.947374 0.215295 0.111186 -0.628853
O61   O     O_3   0.054744 0.323846 0.998825 -0.557254
C277  C     C_3   0.047569 0.319746 0.069659 0.117345
H121  H     H_    0.022470 0.306395 0.102128 0.122814
H122  H     H_    0.046825 0.345249 0.093934 0.208958
C278  C     C_3   0.075937 0.297974 0.070235 -0.292283
H123  H     H_    0.076920 0.272466 0.046042 0.239420
H124  H     H_    0.101178 0.310901 0.038109 0.260019
C279  C     C_3   0.069611 0.292760 0.145633 -0.908743
H125  H     H_    0.069070 0.317941 0.170458 0.278074
H126  H     H_    0.090646 0.276889 0.144219 0.279290
H127  H     H_    0.044770 0.279285 0.178366 0.269828
O62   O     O_3   0.945603 0.323779 0.000958 -0.557039
C280  C     C_3   0.952806 0.319575 0.930114 0.117523
H128  H     H_    0.977945 0.306219 0.897666 0.122686
H129  H     H_    0.953485 0.345040 0.905829 0.208486
C281  C     C_3   0.924508 0.297746 0.929513 -0.292206
H130  H     H_    0.923588 0.272279 0.953730 0.239193
H131  H     H_    0.899229 0.310681 0.961606 0.259945
C282  C     C_3   0.930871 0.292413 0.854103 -0.910351
H132  H     H_    0.931352 0.317551 0.829252 0.278217
H133  H     H_    0.909885 0.276504 0.855500 0.278927
H134  H     H_    0.955751 0.278927 0.821404 0.269746
O63   O     O_3   0.555138 0.824142 0.999354 -0.557947
C283  C     C_3   0.548579 0.820973 0.069954 0.116134
H135  H     H_    0.523814 0.807238 0.103347 0.122914
H136  H     H_    0.547509 0.846814 0.093299 0.210480
C284  C     C_3   0.577620 0.800296 0.070283 -0.290344
H137  H     H_    0.578754 0.774317 0.047724 0.238798
H138  H     H_    0.602568 0.813456 0.036600 0.260140
C285  C     C_3   0.572168 0.796537 0.145352 -0.908509
H139  H     H_    0.571585 0.822226 0.168445 0.278377
H140  H     H_    0.593637 0.781379 0.143796 0.279002
H141  H     H_    0.547598 0.782941 0.179719 0.270082
O64   O     O_3   0.445568 0.823447 0.003342 -0.556066
C286  C     C_3   0.452495 0.818964 0.932741 0.116120
H142  H     H_    0.477699 0.805763 0.900029 0.123268
H143  H     H_    0.452861 0.844313 0.908353 0.207798
C287  C     C_3   0.424222 0.796766 0.932946 -0.294175
H144  H     H_    0.423597 0.771427 0.957344 0.239458
H145  H     H_    0.398880 0.809554 0.965248 0.260390
C288  C     C_3   0.430302 0.791082 0.857831 -0.901909
H146  H     H_    0.430494 0.816082 0.832804 0.278870
H147  H     H_    0.409337 0.774915 0.859818 0.278986
H148  H     H_    0.455240 0.777726 0.824948 0.270614
F49   F     F_    0.054936 0.394143 0.995841 -0.561725
F50   F     F_    0.945222 0.394078 0.004017 -0.561439
F51   F     F_    0.555217 0.894441 0.995407 -0.564859
F52   F     F_    0.445082 0.893756 0.005471 -0.561534
F53   F     F_    0.536044 0.394184 0.053853 -0.614266
F54   F     F_    0.463896 0.394331 0.946088 -0.614327
F55   F     F_    0.036580 0.894228 0.052637 -0.615108
F56   F     F_    0.963415 0.894329 0.947259 -0.611392
O65   O     O_3   0.478735 0.286083 0.126796 -0.582866
C289  C     C_3   0.442591 0.284087 0.171187 0.188037
H149  H     H_    0.437144 0.287530 0.226749 0.197147
H150  H     H_    0.431634 0.258597 0.169204 0.147451
C290  C     C_3   0.424457 0.312865 0.153647 -0.439411
H151  H     H_    0.436396 0.338013 0.153234 0.264680
H152  H     H_    0.427437 0.308323 0.100216 0.224879
C291  C     C_3   0.386136 0.314286 0.207648 -0.808323
H153  H     H_    0.373611 0.289500 0.208325 0.260263
H154  H     H_    0.373756 0.335138 0.193039 0.289252
H155  H     H_    0.382278 0.319660 0.261524 0.278270
O66   O     O_3   0.521040 0.286016 0.873052 -0.582997
C292  C     C_3   0.557182 0.283892 0.828640 0.187470
H156  H     H_    0.562624 0.287321 0.773089 0.196794
H157  H     H_    0.568115 0.258362 0.830575 0.147302
C293  C     C_3   0.575351 0.312601 0.846211 -0.438878
H158  H     H_    0.563436 0.337793 0.846667 0.264514
H159  H     H_    0.572372 0.308064 0.899630 0.224825
C294  C     C_3   0.613671 0.313884 0.792198 -0.809563
H160  H     H_    0.626171 0.289051 0.791478 0.260147
H161  H     H_    0.626076 0.334689 0.806829 0.289172
H162  H     H_    0.617528 0.319249 0.738334 0.278205
O67   O     O_3   0.979583 0.786092 0.126583 -0.583769
C295  C     C_3   0.943508 0.784073 0.171849 0.187356
H163  H     H_    0.938461 0.787543 0.227135 0.195917
H164  H     H_    0.932467 0.758567 0.170289 0.147896
C296  C     C_3   0.925063 0.812814 0.155041 -0.437975
H165  H     H_    0.937050 0.837983 0.154274 0.262540
H166  H     H_    0.927673 0.808268 0.101920 0.225846
C297  C     C_3   0.886858 0.814176 0.209853 -0.815826
H167  H     H_    0.874284 0.789368 0.210899 0.262198
H168  H     H_    0.874242 0.835003 0.195774 0.288013
H169  H     H_    0.883368 0.819553 0.263443 0.276635
O68   O     O_3   0.020250 0.785973 0.873452 -0.583106
C298  C     C_3   0.056330 0.783838 0.828246 0.187103
H170  H     H_    0.061405 0.787251 0.772939 0.196565
H171  H     H_    0.067351 0.758308 0.829856 0.147356
C299  C     C_3   0.074769 0.812552 0.845080 -0.438661
H172  H     H_    0.062784 0.837745 0.845852 0.264461
H173  H     H_    0.072153 0.808038 0.898204 0.224964
C300  C     C_3   0.112978 0.813812 0.790288 -0.809619
H174  H     H_    0.125552 0.788978 0.789236 0.260393
H175  H     H_    0.125587 0.834622 0.804392 0.289404
H176  H     H_    0.116476 0.819153 0.736694 0.277857
F57   F     F_    0.983396 0.715264 0.123526 -0.633601
F58   F     F_    0.016352 0.715161 0.876526 -0.633263
F59   F     F_    0.482523 0.215250 0.123801 -0.632569
F60   F     F_    0.517203 0.215195 0.875938 -0.633235
O69   O     O_3   0.057497 0.605858 0.897007 -0.597193
C301  C     C_3   0.061561 0.610865 0.828359 0.074270
H177  H     H_    0.089180 0.616304 0.791433 0.187856
H178  H     H_    0.046710 0.633009 0.824078 0.163270
C302  C     C_3   0.051535 0.577997 0.804147 -0.325581
H179  H     H_    0.067429 0.556229 0.805245 0.275236
H180  H     H_    0.024040 0.572218 0.841265 0.232575
C303  C     C_3   0.056799 0.581607 0.729209 -0.826789
H181  H     H_    0.039985 0.602271 0.727610 0.271353
H182  H     H_    0.050135 0.557044 0.712704 0.265454
H183  H     H_    0.084102 0.587751 0.691149 0.280618
O70   O     O_3   0.942393 0.605957 0.103021 -0.597095
C304  C     C_3   0.938362 0.611009 0.171644 0.074210
H184  H     H_    0.910743 0.616503 0.208622 0.187991
H185  H     H_    0.953206 0.633140 0.175910 0.163199
C305  C     C_3   0.948434 0.578144 0.195786 -0.325470
H186  H     H_    0.932549 0.556394 0.194698 0.275211
H187  H     H_    0.975929 0.572310 0.158623 0.232632
C306  C     C_3   0.943201 0.581806 0.270701 -0.826745
H188  H     H_    0.960014 0.602446 0.272283 0.271438
H189  H     H_    0.949889 0.557243 0.287164 0.265398
H190  H     H_    0.915901 0.588011 0.308804 0.280527
O71   O     O_3   0.557820 0.105894 0.897876 -0.597499
C307  C     C_3   0.562232 0.110807 0.828923 0.073565
H191  H     H_    0.589988 0.115707 0.792220 0.187183
H192  H     H_    0.547923 0.133263 0.823952 0.163782
C308  C     C_3   0.551722 0.078147 0.805007 -0.328389
H193  H     H_    0.567216 0.056106 0.806558 0.274571
H194  H     H_    0.524111 0.072807 0.841991 0.233435
C309  C     C_3   0.557219 0.081739 0.729888 -0.824546
H195  H     H_    0.540771 0.102673 0.727839 0.272149
H196  H     H_    0.550237 0.057302 0.713577 0.264849
H197  H     H_    0.584640 0.087470 0.691948 0.280183
O72   O     O_3   0.441862 0.106036 0.101297 -0.596754
C310  C     C_3   0.437178 0.110918 0.170474 0.073253
H198  H     H_    0.409417 0.116070 0.206792 0.188122
H199  H     H_    0.451563 0.133205 0.175733 0.163488
C311  C     C_3   0.447304 0.078109 0.194686 -0.323589
H200  H     H_    0.431852 0.056204 0.192536 0.275388
H201  H     H_    0.474952 0.072619 0.158224 0.234153
C312  C     C_3   0.441343 0.081579 0.270167 -0.826318
H202  H     H_    0.457528 0.102560 0.272934 0.272980
H203  H     H_    0.448341 0.057131 0.286425 0.265154
H204  H     H_    0.413823 0.087196 0.307672 0.280598
O73   O     O_3   0.908022 0.519921 0.809532 -0.558282
C313  C     C_3   0.902073 0.496079 0.767528 0.113364
H205  H     H_    0.925180 0.492819 0.714020 0.100286
H206  H     H_    0.879930 0.504785 0.761344 0.177089
C314  C     C_3   0.893339 0.461207 0.804646 -0.265403
H207  H     H_    0.914524 0.453071 0.814540 0.260528
H208  H     H_    0.869289 0.463467 0.856556 0.247807
C315  C     C_3   0.888491 0.433925 0.759614 -0.980573
H209  H     H_    0.867898 0.441788 0.747708 0.246119
H210  H     H_    0.881079 0.409160 0.788854 0.288073
H211  H     H_    0.912944 0.430088 0.709132 0.269544
O74   O     O_3   0.091956 0.519748 0.190537 -0.558400
C316  C     C_3   0.097880 0.495888 0.232522 0.113433
H212  H     H_    0.074808 0.492774 0.286105 0.100107
H213  H     H_    0.120090 0.504476 0.238547 0.177083
C317  C     C_3   0.106449 0.460951 0.195499 -0.265722
H214  H     H_    0.085191 0.452935 0.185766 0.260575
H215  H     H_    0.130469 0.463052 0.143515 0.247856
C318  C     C_3   0.111265 0.433658 0.240515 -0.979995
H216  H     H_    0.131942 0.441399 0.252235 0.246125
H217  H     H_    0.118542 0.408835 0.211353 0.288136
H218  H     H_    0.086839 0.429992 0.291095 0.269559
O75   O     O_3   0.408208 0.020579 0.809242 -0.558801
C319  C     C_3   0.401928 0.996889 0.767466 0.114616
H219  H     H_    0.424881 0.993594 0.713741 0.099992
H220  H     H_    0.379692 0.005778 0.761806 0.179208
C320  C     C_3   0.393147 0.961981 0.804432 -0.267161
H221  H     H_    0.414423 0.953655 0.813875 0.260997
H222  H     H_    0.369222 0.964273 0.856554 0.247815
C321  C     C_3   0.387967 0.934871 0.759535 -0.977701
H223  H     H_    0.367297 0.942932 0.748021 0.245513
H224  H     H_    0.380510 0.910079 0.788674 0.288506
H225  H     H_    0.412302 0.930988 0.708839 0.270201
O76   O     O_3   0.591592 0.030524 0.189325 -0.564278
C322  C     C_3   0.610714 0.012478 0.215054 0.131912
H226  H     H_    0.593242 0.001273 0.268240 0.075095
H227  H     H_    0.629620 0.029615 0.219073 0.210618
C323  C     C_3   0.630477 0.983297 0.163489 -0.267481
H228  H     H_    0.612143 0.962711 0.168424 0.234242
H229  H     H_    0.643180 0.993159 0.108135 0.265122
C324  C     C_3   0.658062 0.968252 0.177923 -1.017391
H230  H     H_    0.678090 0.987831 0.167756 0.276994
H231  H     H_    0.670493 0.945880 0.142490 0.283506
H232  H     H_    0.646453 0.959612 0.233709 0.247438
F61   F     F_    0.867706 0.573727 0.807426 -0.556602
F62   F     F_    0.132227 0.573504 0.192718 -0.556591
F63   F     F_    0.368257 0.074649 0.806614 -0.555937
F64   F     F_    0.624277 0.089736 0.202260 -0.571606
F65   F     F_    0.963980 0.548515 0.853722 -0.634474
F66   F     F_    0.035921 0.548475 0.146483 -0.634632
F67   F     F_    0.464386 0.048858 0.853359 -0.635072
F68   F     F_    0.534281 0.049922 0.147975 -0.633472
F69   F     F_    0.036857 0.450860 0.648101 -0.620478
F70   F     F_    0.963291 0.450823 0.351640 -0.620446
F71   F     F_    0.536365 0.950520 0.648741 -0.605275
F72   F     F_    0.465564 0.949440 0.349078 -0.623022
F73   F     F_    0.089149 0.477345 0.726177 -0.577265
F74   F     F_    0.910976 0.477455 0.273265 -0.577297
F75   F     F_    0.588760 0.976930 0.727709 -0.581328
F76   F     F_    0.412686 0.976738 0.268083 -0.579053
F77   F     F_    0.121704 0.424158 0.753163 -0.529352
F78   F     F_    0.878519 0.424275 0.246113 -0.529248
F79   F     F_    0.620844 0.923577 0.755506 -0.533380
F80   F     F_    0.380890 0.923005 0.240756 -0.529215

loop_
_geom_bond_atom_site_label_1
_geom_bond_atom_site_label_2
_ccdc_geom_bond_type
C248  C249  S    
C99   C103  A    
C90   F34   S    
O36   Zn8   S    
C55   C59   A    
C190  F54   S    
C285  H141  S    
C264  H90   S    
C77   C101  A    
C200  O74   S    
C308  C309  S    
C153  H17   S    
C269  H102  S    
C309  H197  S    
C316  H212  S    
C223  C226  A    
C324  H230  S    
C288  H146  S    
C189  C203  A    
C6    C238  A    
O50   C244  S    
C245  H47   S    
C97   O53   S    
C304  H185  S    
C34   F6    S    
C35   C39   A    
C310  C311  S    
C95   C99   A    
C306  H189  S    
C194  C197  A    
C301  H177  S    
C205  C211  A    
C289  H150  S    
C234  F2    S    
C29   C33   A    
C100  C104  A    
C243  H41   S    
C8    C138  S    
C148  C160  S    
C282  H134  S    
C161  F45   S    
C294  H160  S    
C149  C153  A    
O76   C322  S    
C244  C245  S    
C74   C144  S    
C261  H85   S    
C54   C74   A    
C129  O29   A    
C68   F24   S    
C305  H187  S    
O66   C292  S    
C274  H115  S    
C313  C314  S    
C119  F43   S    
C70   C74   A    
O19   Zn4   S    
C151  C155  A    
C138  O36   A    
C238  F66   S    
C287  C288  S    
C40   C44   A    
C237  F65   S    
C24   C240  A    
C305  C306  S    
C22   C238  A    
C242  C243  S    
C289  C290  S    
C210  F58   S    
C198  C216  S    
C155  C158  A    
C224  O72   S    
C272  H110  S    
C72   F28   S    
C1    C113  S    
C207  O67   S    
C41   C49   A    
C312  H203  S    
C286  C287  S    
C317  C318  S    
C25   C29   A    
C140  O44   A    
C275  H117  S    
C143  O5    A    
C150  C159  A    
C27   C31   A    
C315  H210  S    
C46   O22   A    
C28   C32   A    
O45   Zn9   S    
C286  H143  S    
C7    C137  S    
C62   C66   A    
C297  H167  S    
C179  C188  A    
C299  C300  S    
C239  F67   S    
C266  H95   S    
C148  O15   A    
C92   C236  A    
C209  C213  A    
C120  C124  A    
C182  C185  A    
O37   Zn6   S    
C172  H24   S    
C290  C291  S    
C19   C23   A    
C1    O1    A    
C41   F9    S    
C71   F27   S    
C201  O75   S    
C59   F19   S    
C30   F78   S    
C78   C82   A    
C3    O3    A    
C279  H127  S    
C68   C72   A    
C219  H35   S    
O60   C274  S    
O44   Zn8   S    
C218  H34   S    
C314  C315  S    
C171  H23   S    
C40   H4    S    
C93   H5    S    
C23   C167  S    
C257  H74   S    
C229  F61   S    
C141  O46   A    
C208  O68   S    
C320  C321  S    
C4    O4    A    
C264  H92   S    
C311  H201  S    
C59   C63   A    
C252  H64   S    
C323  H229  S    
C308  H193  S    
C269  C270  S    
C286  H142  S    
C316  C317  S    
C147  O13   A    
C266  C267  S    
C250  H59   S    
C177  O61   S    
O18   Zn3   S    
C283  H135  S    
C261  H84   S    
C118  F42   S    
C189  F53   S    
C64   C104  S    
C84   C88   A    
C293  H158  S    
C137  O39   A    
C297  H169  S    
C181  F49   S    
C83   F31   S    
C310  H198  S    
C57   C61   A    
C277  H121  S    
C131  H25   S    
C119  C123  A    
C110  O58   S    
O69   C301  S    
O40   Zn7   S    
C91   F35   S    
C89   C131  A    
C243  H43   S    
C105  C125  A    
C60   C64   A    
C291  H153  S    
C323  C324  S    
C156  C158  A    
C199  C229  A    
C107  C127  A    
C268  H101  S    
O73   C313  S    
C2    C114  S    
C66   C70   A    
C14   F70   S    
C112  O60   S    
C271  H107  S    
C236  F4    S    
C168  C202  A    
C230  C234  A    
C271  C272  S    
C292  H156  S    
C260  H82   S    
C150  H14   S    
C249  H55   S    
C135  O33   A    
C53   F13   S    
C22   C166  S    
C206  C212  A    
C296  C297  S    
C31   F79   S    
C281  H130  S    
C265  H93   S    
C3    C115  S    
C302  H179  S    
C182  F50   S    
C43   F11   S    
C318  H218  S    
C180  C184  A    
C245  H46   S    
C139  O41   A    
O48   Zn12  S    
C21   C237  A    
C120  F44   S    
C254  H67   S    
C202  O76   S    
C221  C225  A    
C86   C126  S    
C205  O65   S    
C129  C185  S    
C164  C170  A    
C195  H31   S    
C307  H191  S    
C277  C278  S    
C246  H49   S    
C300  H174  S    
C21   C165  S    
C318  H217  S    
C256  H72   S    
C217  H33   S    
C199  O73   S    
O5    Zn9   S    
C32   C36   A    
C315  H209  S    
C17   C45   S    
O7    Zn11  S    
C322  H227  S    
O64   C286  S    
C19   C47   S    
C149  H13   S    
C250  H58   S    
C91   C235  A    
C232  C236  A    
O70   C304  S    
C118  C122  A    
C89   C233  A    
C56   F16   S    
C207  C216  A    
C9    C13   A    
C180  O64   S    
O34   Zn6   S    
C85   C93   A    
C135  O37   A    
C257  C258  S    
C152  C156  A    
O9    Zn10  S    
C296  H165  S    
C13   F69   S    
C247  H51   S    
C25   C49   A    
C87   C95   A    
C105  F37   S    
C263  H88   S    
C45   O25   A    
C219  C228  A    
C163  C169  A    
C110  C114  A    
O2    Zn1   S    
C67   C71   A    
C154  H18   S    
C108  F40   S    
C193  H29   S    
C262  C263  S    
C55   C75   A    
C44   C52   A    
O32   Zn8   S    
C79   C103  A    
C26   F74   S    
C11   C15   A    
C178  O62   S    
C293  C294  S    
C25   F73   S    
C306  H188  S    
C303  H181  S    
C27   C51   A    
C133  H27   S    
C253  H66   S    
C8    C240  A    
C273  H112  S    
C276  H119  S    
C37   H1    S    
C30   C34   A    
C144  O10   A    
C291  H155  S    
C12   C16   A    
C9    C49   S    
C267  H97   S    
C10   C14   A    
C183  C186  A    
O62   C280  S    
C309  H196  S    
C162  C175  A    
C222  C225  A    
C219  C223  A    
O22   Zn1   S    
C116  C120  A    
C142  C204  S    
C292  C293  S    
C61   C101  S    
C142  O47   A    
C5    C9    A    
C61   C65   A    
C122  H10   S    
C253  C254  S    
C155  H19   S    
C66   F22   S    
C123  C127  A    
C270  H104  S    
C281  C282  S    
C8    C12   A    
C270  H106  S    
C263  C264  S    
C280  H128  S    
C244  H44   S    
C284  C285  S    
C206  O66   S    
C108  C128  A    
O24   Zn2   S    
C278  H124  S    
C241  C242  S    
C231  F63   S    
C42   C50   A    
C245  C246  S    
C113  C117  A    
C230  F62   S    
C255  H69   S    
C279  H126  S    
C26   C30   A    
C254  C255  S    
C115  C119  A    
O17   Zn3   S    
C28   F76   S    
C313  H206  S    
C235  F3    S    
C145  O7    A    
C307  C308  S    
C223  O71   S    
C112  C116  A    
C300  H176  S    
C146  O8    A    
O54   C256  S    
O21   Zn1   S    
C251  H60   S    
C184  F52   S    
C256  C257  S    
C248  H54   S    
C105  C109  A    
C173  C187  S    
C79   O51   S    
C18   C22   A    
C107  C111  A    
C315  H211  S    
O33   Zn5   S    
C295  H163  S    
C308  H194  S    
C269  H103  S    
C2    O2    A    
C15   F71   S    
O23   Zn2   S    
C210  C213  A    
C44   F12   S    
C124  C128  A    
C170  H22   S    
C42   F10   S    
C195  C198  A    
C246  H50   S    
C3    O19   A    
C124  H12   S    
C165  C199  A    
C48   O24   A    
C304  H184  S    
O14   Zn10  S    
C310  H199  S    
C301  H178  S    
O52   C250  S    
C247  C248  S    
C177  C181  A    
C96   C100  A    
C172  C174  A    
C243  H42   S    
C134  C168  A    
C282  H133  S    
C37   C41   A    
O8    Zn12  S    
C294  H162  S    
C191  C195  A    
C244  H45   S    
C76   C146  S    
C262  H86   S    
C161  C171  A    
C189  C193  A    
C201  C231  A    
C211  C214  A    
C162  C172  A    
C131  C165  A    
C55   F15   S    
O63   C283  S    
C207  C209  A    
C169  C173  A    
O71   C307  S    
C231  C235  A    
C221  O69   S    
C147  O14   A    
C303  H183  S    
C81   C85   A    
C275  C276  S    
O38   Zn5   S    
C62   C102  S    
C301  C302  S    
C206  C215  A    
C58   C62   A    
C83   C87   A    
C88   C96   A    
C93   C97   A    
C78   C102  A    
C241  H38   S    
C84   F32   S    
O3    Zn2   S    
C267  H99   S    
C220  C224  A    
C80   C84   A    
C117  F41   S    
C312  H202  S    
C320  H222  S    
C319  H219  S    
C15   C19   A    
C5    C237  A    
C80   C104  A    
C284  H137  S    
C192  C196  A    
C317  H214  S    
C253  H65   S    
C54   C58   A    
O61   C277  S    
C32   F80   S    
C297  H168  S    
C220  H36   S    
C130  O31   A    
C94   C98   A    
C148  O16   A    
C258  H77   S    
C280  C281  S    
C233  F1    S    
C259  H79   S    
C220  C228  A    
C5    C135  S    
C285  H139  S    
C152  H16   S    
C290  H152  S    
C14   C18   A    
C241  H37   S    
C180  C188  A    
C12   C52   S    
C255  H71   S    
C60   F20   S    
C69   C73   A    
C194  H30   S    
C314  H208  S    
C319  C320  S    
C92   F36   S    
O35   Zn7   S    
C257  H75   S    
C57   F17   S    
C141  O45   A    
C217  C221  A    
C264  H91   S    
C311  C312  S    
O28   Zn4   S    
C295  C296  S    
C212  F60   S    
C18   C46   S    
C303  H182  S    
O58   C268  S    
C316  H213  S    
C321  H223  S    
C266  H96   S    
C134  H28   S    
C171  C174  A    
C92   C134  A    
C54   F14   S    
C82   F30   S    
C4    O20   A    
C248  H53   S    
O47   Zn11  S    
C154  C157  A    
C293  H159  S    
O16   Zn12  S    
C304  C305  S    
C318  H216  S    
C53   C57   A    
C306  H190  S    
C277  H122  S    
C136  O38   A    
C289  H149  S    
C82   C86   A    
C150  C154  A    
C33   C37   A    
C56   C60   A    
O1    Zn1   S    
C45   O21   A    
C47   O23   A    
O55   C259  S    
C149  C159  A    
C268  H100  S    
C213  C227  S    
C111  O59   S    
C129  O30   A    
C320  H221  S    
C58   F18   S    
C77   C81   A    
C274  C275  S    
C271  H108  S    
C67   F23   S    
C36   F8    S    
C94   H6    S    
C179  O63   S    
C20   C48   S    
C249  H56   S    
C217  C227  A    
C178  C187  A    
C196  C198  A    
C270  H105  S    
C212  C214  A    
C143  O9    A    
C265  H94   S    
C144  O6    A    
C272  C273  S    
C31   C35   A    
C288  H148  S    
C287  H144  S    
C10   C50   S    
C163  F47   S    
C218  C227  A    
C302  C303  S    
C312  H204  S    
C202  C232  A    
C73   C143  S    
C140  O43   A    
C33   F5    S    
O51   C247  S    
O20   Zn4   S    
C35   F7    S    
C4    C116  S    
C283  C284  S    
O31   Zn7   S    
C249  H57   S    
C307  H192  S    
C6    C10   A    
C321  H224  S    
C29   F77   S    
C287  H145  S    
C1    O17   A    
C265  C266  S    
C106  C126  A    
C164  C176  A    
C107  F39   S    
C90   C132  A    
C177  C187  A    
C259  C260  S    
C139  C225  S    
O41   Zn5   S    
C133  C167  A    
C232  F64   S    
C208  C210  A    
C98   C102  A    
C151  C160  A    
C298  C299  S    
C79   C83   A    
C43   C51   A    
O68   C298  S    
O43   Zn7   S    
C65   C69   A    
C53   C73   A    
C317  H215  S    
C184  C186  A    
C196  H32   S    
C27   F75   S    
C167  C201  A    
C153  C157  A    
C299  H172  S    
C145  O11   A    
C17   C21   A    
C140  C226  S    
C321  H225  S    
C146  O12   A    
C132  H26   S    
C13   C17   A    
C108  C112  A    
C205  C215  A    
C247  H52   S    
C311  H200  S    
C263  H89   S    
O49   C241  S    
C323  H228  S    
C96   H8    S    
C291  H154  S    
C262  H87   S    
C170  C173  A    
C250  C251  S    
O75   C319  S    
C152  C160  A    
C261  H83   S    
C56   C76   A    
O25   Zn3   S    
C164  F48   S    
C123  H11   S    
C2    O18   A    
C85   C125  S    
C251  H61   S    
C72   C76   A    
C147  C159  S    
C87   C127  S    
O53   C253  S    
O4    Zn2   S    
O11   Zn12  S    
C26   C50   A    
C75   C145  S    
C7    C11   A    
C273  H113  S    
C276  H118  S    
O6    Zn10  S    
C211  F59   S    
C24   C168  S    
C132  C166  A    
C38   C42   A    
C268  C269  S    
C80   O52   S    
O30   Zn6   S    
C161  C175  A    
C109  O57   S    
C190  C203  A    
C252  H63   S    
C298  H171  S    
C274  H114  S    
C23   C239  A    
C90   C234  A    
C324  H231  S    
C292  H157  S    
C117  C121  A    
C260  C261  S    
C222  O70   S    
C86   C94   A    
C174  C188  S    
C121  C125  A    
O10   Zn9   S    
C183  F51   S    
O72   C310  S    
C240  F68   S    
C20   C24   A    
C77   O49   S    
C6    C136  S    
C282  H132  S    
C284  H138  S    
C89   F33   S    
C63   C103  S    
C214  C228  S    
C278  H123  S    
C285  H140  S    
C197  C215  S    
C16   C20   A    
C258  H78   S    
C95   H7    S    
C255  H70   S    
O56   C262  S    
C254  H68   S    
C229  C233  A    
C163  C176  A    
C275  H116  S    
C169  H21   S    
C300  H175  S    
C319  H220  S    
C218  C222  A    
C288  H147  S    
C179  C183  A    
C256  H73   S    
C192  C204  A    
C38   H2    S    
C63   C67   A    
C302  H180  S    
C36   C40   A    
C191  F55   S    
C162  F46   S    
C295  H164  S    
C322  C323  S    
C298  H170  S    
C181  C185  A    
C39   C43   A    
C258  H76   S    
C122  C126  A    
C324  H232  S    
C299  H173  S    
C46   O26   A    
C106  F38   S    
C137  O35   A    
O46   Zn10  S    
C251  C252  S    
C121  H9    S    
C91   C133  A    
C65   F21   S    
C272  H109  S    
C64   C68   A    
O57   C265  S    
C178  C182  A    
C294  H161  S    
O26   Zn3   S    
C114  C118  A    
C157  C175  S    
C158  C176  S    
C7    C239  A    
C78   O50   S    
C100  O56   S    
C70   F26   S    
C200  C230  A    
C267  H98   S    
O59   C271  S    
C81   F29   S    
C305  H186  S    
C151  H15   S    
C242  H39   S    
C106  C110  A    
C136  O34   A    
C322  H226  S    
C273  H111  S    
C276  H120  S    
C69   F25   S    
C296  H166  S    
C34   C38   A    
C47   O27   A    
C141  C203  S    
C281  H131  S    
C48   O28   A    
C224  C226  A    
C138  O40   A    
C130  C186  S    
C309  H195  S    
C109  C113  A    
C99   O55   S    
C98   O54   S    
O74   C316  S    
C139  O42   A    
C283  H136  S    
C260  H81   S    
C88   C128  S    
C209  F57   S    
O12   Zn11  S    
C71   C75   A    
C28   C52   A    
O13   Zn9   S    
O65   C289  S    
C130  O32   A    
C39   H3    S    
C193  C197  A    
O15   Zn11  S    
C280  H129  S    
C259  H80   S    
C252  H62   S    
C290  H151  S    
C278  C279  S    
C166  C200  A    
O27   Zn4   S    
C11   C51   S    
C190  C194  A    
O67   C295  S    
C192  F56   S    
C142  O48   A    
C279  H125  S    
C208  C216  A    
C191  C204  A    
C313  H205  S    
O42   Zn6   S    
O29   Zn5   S    
C111  C115  A    
C242  H40   S    
C314  H207  S    
C16   F72   S    
O39   Zn8   S    
C97   C101  A    
C246  H48   S    
C156  H20   S    
