data_mof_unit_pretest_98.cif
_audit_creation_date              2012-12-10T18:47:05-0500
_audit_creation_method            fapswitch 2.2
_symmetry_space_group_name_H-M    P1
_symmetry_Int_Tables_number       1
_space_group_crystal_system       triclinic
_cell_length_a                    10.677376
_cell_length_b                    9.849617
_cell_length_c                    14.952183
_cell_angle_alpha                 90.085944
_cell_angle_beta                  90.275124
_cell_angle_gamma                 89.96985
_cell_volume                      1572.47203149

loop_
_atom_site_label
_atom_site_type_symbol
_atom_type_description
_atom_site_fract_x
_atom_site_fract_y
_atom_site_fract_z
_atom_type_partial_charge
C1    C     C_R   0.259974 0.500026 0.499950 0.858822
C2    C     C_R   0.740025 0.499974 0.500048 0.858668
C3    C     C_R   0.276959 0.556028 0.044564 -0.167658
C4    C     C_R   0.723074 0.444231 0.955434 -0.167714
C5    C     C_R   0.063983 0.385172 0.469174 -0.155680
C6    C     C_R   0.936016 0.614833 0.530813 -0.155580
C7    C     C_R   0.935705 0.385095 0.469299 -0.199109
C8    C     C_R   0.064294 0.614911 0.530687 -0.199188
C9    C     C_R   0.872436 0.499931 0.500106 -0.021551
C10   C     C_R   0.127564 0.500072 0.499884 -0.021642
C11   C     C_R   0.580982 0.072003 0.553462 -0.069645
C12   C     C_R   0.419018 0.927997 0.446538 -0.069598
C13   C     C_R   0.419011 0.071846 0.446544 -0.065656
C14   C     C_R   0.580989 0.928154 0.553456 -0.065636
C15   C     C_R   0.500382 0.499873 0.327386 0.884026
C16   C     C_R   0.499626 0.500128 0.672613 0.883965
C17   C     C_R   0.614969 0.480503 0.812961 -0.095345
C18   C     C_R   0.385043 0.519632 0.187039 -0.095365
C19   C     C_R   0.500842 0.500548 0.767802 -0.192756
C20   C     C_R   0.499160 0.499476 0.232197 -0.192542
C21   C     C_R   0.387700 0.523619 0.812507 0.138205
C22   C     C_R   0.612296 0.476400 0.187490 0.138185
C23   C     C_R   0.388058 0.526510 0.905655 0.094269
C24   C     C_R   0.611954 0.473643 0.094342 0.094051
C25   C     C_R   0.500612 0.500743 0.953013 0.005935
C26   C     C_R   0.499407 0.499451 0.046985 0.005925
C27   C     C_R   0.614211 0.476152 0.906743 0.101002
C28   C     C_R   0.385809 0.524045 0.093255 0.101005
C29   C     C_R   0.277902 0.556159 0.952230 -0.212483
C30   C     C_R   0.722128 0.444078 0.047766 -0.212353
H1    H     H_    0.191426 0.580574 0.917663 0.194852
H2    H     H_    0.808613 0.419703 0.082333 0.194944
H3    H     H_    0.190123 0.583317 0.076761 0.193379
H4    H     H_    0.809921 0.416984 0.923239 0.193361
H5    H     H_    0.113145 0.296569 0.444402 0.158038
H6    H     H_    0.886856 0.703436 0.555586 0.158053
H7    H     H_    0.886287 0.296493 0.444545 0.158787
H8    H     H_    0.113712 0.703513 0.555442 0.158803
H9    H     H_    0.645729 0.126536 0.596229 0.127068
H10   H     H_    0.354271 0.873463 0.403771 0.127058
H11   H     H_    0.354239 0.126251 0.403794 0.134274
H12   H     H_    0.645761 0.873749 0.596206 0.134298
N1    N     N_R   0.500000 0.857200 0.500000 -0.083994
N2    N     N_R   0.500000 0.142800 0.500000 -0.084001
O1    O     O_R   0.316770 0.614620 0.499990 -0.636879
O2    O     O_R   0.683230 0.385380 0.500010 -0.636808
O3    O     O_R   0.683230 0.614620 0.500010 -0.625412
O4    O     O_R   0.316770 0.385380 0.499990 -0.625248
O5    O     O_R   0.499980 0.614680 0.367850 -0.626174
O6    O     O_R   0.500020 0.385320 0.632150 -0.626161
O7    O     O_R   0.500020 0.614680 0.632150 -0.616849
O8    O     O_R   0.499980 0.385320 0.367850 -0.616902
Zn1   Zn    Zn3+2 0.500000 0.653120 0.500000 0.943558
Zn2   Zn    Zn3+2 0.500000 0.346880 0.500000 0.943574
C31   C     C_2   0.733052 0.467762 0.760452 0.360392
H13   H     H_    0.735024 0.406273 0.700213 0.071091
O9    O     O_2   0.826729 0.531683 0.781294 -0.581094
C32   C     C_2   0.266959 0.532384 0.239544 0.360321
H14   H     H_    0.265006 0.593820 0.299806 0.071137
O10   O     O_2   0.173255 0.468529 0.218671 -0.581241
N3    N     N_2   0.273710 0.545639 0.764018 -0.318325
H15   H     H_    0.281430 0.607235 0.708653 0.237607
C33   C     C_3   0.201877 0.423925 0.746463 -0.752955
H16   H     H_    0.254104 0.355252 0.700924 0.244980
H17   H     H_    0.111532 0.451642 0.714195 0.262789
H18   H     H_    0.181324 0.369906 0.809889 0.252484
N4    N     N_2   0.726269 0.454143 0.235959 -0.318403
H19   H     H_    0.718532 0.392258 0.291187 0.237661
C34   C     C_3   0.798116 0.575765 0.253806 -0.753184
H20   H     H_    0.746359 0.643660 0.300154 0.244928
H21   H     H_    0.817738 0.630768 0.190586 0.252451
H22   H     H_    0.888926 0.547754 0.285319 0.263187

loop_
_geom_bond_atom_site_label_1
_geom_bond_atom_site_label_2
_ccdc_geom_bond_type
C12   H10   S    
C34   H22   S    
O4    Zn2   S    
C31   H13   S    
C33   H17   S    
C1    O4    A    
C2    O3    A    
C25   C27   A    
C4    H4    S    
C17   C31   S    
C21   N3    S    
C34   H21   S    
C16   O7    A    
C14   H12   S    
O3    Zn1   S    
C7    C9    A    
O2    Zn2   S    
C6    C9    A    
C13   H11   S    
C18   C32   S    
C7    H7    S    
C33   H18   S    
O1    Zn1   S    
C11   N2    A    
C29   H1    S    
C15   O8    A    
C2    O2    A    
C15   O5    A    
C30   H2    S    
C24   C26   A    
C1    O1    A    
O6    Zn2   S    
C8    H8    S    
C16   C19   S    
O5    Zn1   S    
C23   C29   A    
C8    C10   A    
C3    C28   A    
C17   C19   A    
C20   C22   A    
O8    Zn2   S    
C12   N1    A    
C5    C7    A    
C34   H20   S    
C31   O9    D    
C21   C23   A    
N3    H15   S    
C16   O6    A    
C11   C14   A    
C22   C24   A    
C22   N4    S    
C32   H14   S    
C24   C30   A    
C11   H9    S    
C3    H3    S    
O7    Zn1   S    
C32   O10   D    
C33   H16   S    
C17   C27   A    
N2    Zn2   S    
C5    C10   A    
C4    C27   A    
C18   C28   A    
C12   C13   A    
C18   C20   A    
C3    C29   A    
C23   C25   A    
N3    C33   S    
C14   N1    A    
C6    C8    A    
C19   C21   A    
C25   C26   A    
C2    C9    S    
C26   C28   A    
C5    H5    S    
N1    Zn1   S    
C13   N2    A    
C4    C30   A    
C1    C10   S    
N4    H19   S    
C6    H6    S    
C15   C20   S    
N4    C34   S    
