data_mof_unit_pretest_619.cif
_audit_creation_date              2012-12-10T16:56:35-0500
_audit_creation_method            fapswitch 2.2
_symmetry_space_group_name_H-M    P1
_symmetry_Int_Tables_number       1
_space_group_crystal_system       triclinic
_cell_length_a                    7.752903
_cell_length_b                    8.664327
_cell_length_c                    15.695707
_cell_angle_alpha                 90.942331
_cell_angle_beta                  85.808774
_cell_angle_gamma                 93.800899
_cell_volume                      1049.13467672

loop_
_atom_site_label
_atom_site_type_symbol
_atom_type_description
_atom_site_fract_x
_atom_site_fract_y
_atom_site_fract_z
_atom_type_partial_charge
C1    C     C_R   0.545814 0.794473 0.503317 0.930732
C2    C     C_3   0.414008 0.369405 0.029352 -0.164142
C3    C     C_1   0.506165 0.499633 0.750865 -0.154872
C4    C     C_1   0.493832 0.500313 0.249126 -0.173069
C5    C     C_3   0.336875 0.492766 0.975874 -0.158684
C6    C     C_3   0.663117 0.507015 0.024098 -0.162277
C7    C     C_3   0.503888 0.499608 0.917236 0.204924
C8    C     C_3   0.496102 0.500174 0.082740 0.205391
C9    C     C_1   0.506650 0.499474 0.826231 -0.071206
C10   C     C_1   0.493341 0.500373 0.173753 -0.075758
C11   C     C_2   0.755479 0.017083 0.524473 0.484632
C12   C     C_R   0.455328 0.206925 0.510926 0.920548
C13   C     C_2   0.249198 0.988166 0.549851 0.495885
C14   C     C_R   0.502098 0.500118 0.662038 0.894512
C15   C     C_R   0.497915 0.499947 0.337969 0.917570
C16   C     C_2   0.571693 0.956812 0.517785 -0.281802
C17   C     C_2   0.432009 0.045757 0.527924 -0.304869
C18   C     C_3   0.418956 0.623533 0.031079 -0.164207
C19   C     C_3   0.581035 0.376247 0.968892 -0.162331
C20   C     C_3   0.585982 0.630375 0.970622 -0.163713
H1    H     H_    0.656451 0.736884 0.944374 0.138318
H2    H     H_    0.176420 0.922749 0.503448 0.135828
H3    H     H_    0.343537 0.262892 0.055593 0.136816
H4    H     H_    0.352539 0.724457 0.058721 0.137267
H5    H     H_    0.647449 0.275328 0.941241 0.138613
H6    H     H_    0.796383 0.512854 0.046023 0.136263
H7    H     H_    0.203614 0.486927 0.953942 0.137682
H8    H     H_    0.013654 0.381832 0.437032 0.205596
H9    H     H_    0.986352 0.618176 0.562973 0.203384
H10   H     H_    0.788345 0.097776 0.575362 0.099297
N1    N     N_2   0.950320 0.457950 0.477300 -0.166859
N2    N     N_2   0.049680 0.542050 0.522700 -0.168356
O1    O     O_R   0.389250 0.738570 0.505570 -0.652705
O2    O     O_2   0.178110 0.019069 0.619419 -0.579386
O3    O     O_R   0.610750 0.261430 0.494430 -0.632736
O4    O     O_R   0.678390 0.711630 0.491020 -0.582162
O5    O     O_R   0.321610 0.288370 0.508980 -0.604560
O6    O     O_R   0.355460 0.513480 0.630490 -0.602807
O7    O     O_R   0.644540 0.486520 0.369510 -0.603374
O8    O     O_R   0.644600 0.486540 0.615950 -0.637447
O9    O     O_R   0.355400 0.513460 0.384050 -0.622434
O10   O     O_2   0.869532 0.979777 0.471905 -0.588264
Zn1   Zn    Zn3+2 0.306940 0.517990 0.509710 0.976111
Zn2   Zn    Zn3+2 0.693060 0.482010 0.490290 0.978650

loop_
_geom_bond_atom_site_label_1
_geom_bond_atom_site_label_2
_ccdc_geom_bond_type
C12   C17   S    
O5    Zn1   S    
O7    Zn2   S    
C3    C9    T    
C14   O6    A    
C6    C20   S    
C11   C16   S    
O8    Zn2   S    
C18   C20   S    
N1    N2    D    
C13   C17   S    
C2    H3    S    
C4    C15   S    
C1    O1    A    
C13   O2    D    
C1    C16   S    
C12   O3    A    
O3    Zn2   S    
O9    Zn1   S    
C15   O7    A    
C6    H6    S    
C3    C14   S    
C11   H10   S    
C18   H4    S    
N2    Zn1   S    
C6    C19   S    
C13   H2    S    
H9    N2    S    
C7    C19   S    
C19   H5    S    
C2    C8    S    
O4    Zn2   S    
C2    C5    S    
N1    Zn2   S    
C14   O8    A    
O1    Zn1   S    
C7    C9    S    
O6    Zn1   S    
C20   H1    S    
C15   O9    A    
C11   O10   D    
C8    C10   S    
C7    C20   S    
C12   O5    A    
C5    C7    S    
C6    C8    S    
C5    C18   S    
C2    C19   S    
C5    H7    S    
C4    C10   T    
H8    N1    S    
C8    C18   S    
C1    O4    A    
C16   C17   D    
