data_mof_unit_pretest_842.cif
_audit_creation_date              2013-03-05T15:50:42-0500
_audit_creation_method            fapswitch 2.2
_symmetry_space_group_name_H-M    P1
_symmetry_Int_Tables_number       1
_space_group_crystal_system       triclinic
_cell_length_a                    15.078068
_cell_length_b                    10.855786
_cell_length_c                    9.60539
_cell_angle_alpha                 89.439521
_cell_angle_beta                  90.874987
_cell_angle_gamma                 94.293469
_cell_volume                      1567.5974316

loop_
_atom_site_label
_atom_site_type_symbol
_atom_site_description
_atom_site_fract_x
_atom_site_fract_y
_atom_site_fract_z
_atom_type_partial_charge
O1    O     O_R   0.499990 0.319640 0.618810 -0.599126
O2    O     O_R   0.500000 0.319660 0.381240 -0.580481
C1    C     C_R   0.504769 0.262626 0.501923 0.795787
O3    O     O_R   0.370250 0.499960 0.618800 -0.584949
O4    O     O_R   0.370260 0.499980 0.381230 -0.573226
C2    C     C_R   0.328914 0.498585 0.499125 0.812630
Cu1   Cu    Cu3+1 0.499990 0.499990 0.640660 0.945586
Cu2   Cu    Cu3+1 0.500010 0.500010 0.359340 0.944473
O5    O     O_R   0.500000 0.680340 0.618760 -0.567419
O6    O     O_R   0.500010 0.680360 0.381190 -0.601245
O7    O     O_R   0.629740 0.500020 0.618770 -0.564605
O8    O     O_R   0.629750 0.500040 0.381200 -0.601824
C3    C     C_R   0.492688 0.736463 0.499870 0.789089
C4    C     C_R   0.670939 0.495882 0.501305 0.806092
C5    C     C_R   0.816088 0.542406 0.394616 -0.259164
C6    C     C_R   0.767536 0.488537 0.504623 -0.137631
C7    C     C_R   0.811044 0.426946 0.613976 0.139288
C8    C     C_R   0.905134 0.426007 0.615112 0.065828
C9    C     C_R   0.953061 0.483038 0.502350 -0.037323
C10   C     C_R   0.907831 0.539462 0.391884 0.103167
C11   C     C_R   0.952888 0.370367 0.725073 0.058212
C12   C     C_R   0.046254 0.372926 0.722103 0.272598
C13   C     C_R   0.092896 0.430928 0.610597 -0.024175
C14   C     C_R   0.046375 0.484414 0.499365 -0.018396
C15   C     C_R   0.093540 0.540384 0.385305 0.137570
C16   C     C_R   0.047112 0.594062 0.274411 0.163514
C17   C     C_R   0.954534 0.593687 0.279488 -0.219973
C18   C     C_R   0.185822 0.438334 0.609359 -0.155971
C19   C     C_R   0.232182 0.493485 0.497710 -0.110236
C20   C     C_R   0.186461 0.542837 0.385506 -0.198785
H1    H     H_    0.782105 0.588283 0.310689 0.155476
H2    H     H_    0.223083 0.400715 0.694992 0.198529
H3    H     H_    0.224024 0.585849 0.300407 0.179183
H4    H     H_    0.918654 0.635901 0.195074 0.139378
H5    H     H_    0.517169 0.114246 0.283141 0.161185
C21   C     C_R   0.517468 0.111769 0.769240 -0.172743
H6    H     H_    0.554795 0.199311 0.784632 0.164517
C22   C     C_R   0.490501 0.047545 0.889553 -0.149664
H7    H     H_    0.502212 0.089409 0.990673 0.131773
C23   C     C_R   0.446787 0.930824 0.879265 -0.115015
H8    H     H_    0.422059 0.882939 0.971855 0.143199
C24   C     C_R   0.438260 0.873492 0.750201 -0.140540
H9    H     H_    0.402479 0.783508 0.746787 0.162821
C25   C     C_R   0.473809 0.932829 0.628939 0.089864
C26   C     C_R   0.500504 0.059795 0.635407 0.101803
C27   C     C_R   0.508656 0.128008 0.507853 -0.116527
C28   C     C_R   0.509239 0.064974 0.381326 -0.200423
H10   H     H_    0.508056 0.891742 0.280569 0.172964
C29   C     C_R   0.501359 0.937435 0.379189 -0.211091
C30   C     C_R   0.485005 0.869991 0.502106 -0.122939
H11   H     H_    0.408651 0.345089 0.127977 0.150376
C31   C     C_R   0.606426 0.678585 0.152456 -0.150423
H12   H     H_    0.621039 0.673058 0.260152 0.209559
C32   C     C_R   0.646272 0.782451 0.090908 -0.284264
H13   H     H_    0.682652 0.852526 0.153199 0.167155
C33   C     C_R   0.646277 0.791577 0.949446 -0.218890
H14   H     H_    0.684778 0.869208 0.902734 0.158371
C34   C     C_R   0.610361 0.693924 0.867082 0.198542
C35   C     C_R   0.553347 0.592593 0.927094 0.173654
C36   C     C_R   0.552507 0.589585 0.077218 0.172357
N1    N     N_R   0.500860 0.501210 0.147910 -0.198270
C37   C     C_R   0.449922 0.414957 0.073274 -0.050150
H15   H     H_    0.409008 0.344807 0.870309 0.159717
C38   C     C_R   0.450083 0.414762 0.925656 -0.074135
N2    N     N_R   0.500890 0.501290 0.852040 -0.197424
N3    N     N_3   0.647834 0.694903 0.732255 -0.503663
H16   H     H_    0.643552 0.782093 0.686016 0.200864
H17   H     H_    0.715724 0.682143 0.743804 0.195553
N4    N     N_3   0.760083 0.361265 0.720091 -0.549930
H18   H     H_    0.710418 0.302028 0.673979 0.212718
H19   H     H_    0.732230 0.424273 0.784932 0.244648
N5    N     N_3   0.907155 0.309766 0.839787 -0.533978
H20   H     H_    0.926374 0.355816 0.931735 0.256588
H21   H     H_    0.924952 0.218580 0.846880 0.253893
N6    N     N_R   0.093173 0.312696 0.831402 0.103512
O9    O     O_R   0.133623 0.213948 0.804933 -0.362845
O10   O     O_R   0.094830 0.355557 0.957538 -0.397139
N7    N     N_3   0.094147 0.650349 0.158095 -0.589210
H22   H     H_    0.118470 0.579383 0.100309 0.255198
H23   H     H_    0.050769 0.694853 0.091888 0.226560

loop_
_geom_bond_atom_site_label_1
_geom_bond_atom_site_label_2
_geom_bond_distance
_ccdc_geom_bond_type
N3    H17   1.047277 S    
C7    N4    1.437155 S    
C8    C11   1.424186 A    
C9    C10   1.412038 A    
H5    C28   1.083447 S    
Cu1   Cu2   2.702191 S    
C28   C29   1.381054 A    
C26   C27   1.427520 A    
C31   H12   1.056436 S    
Cu1   O7    1.970810 S    
C16   C17   1.397189 A    
C16   N7    1.438941 S    
C21   H6    1.077906 S    
O4    C2    1.300412 A    
O7    C4    1.299053 A    
N7    H23   1.046058 S    
C5    C6    1.393508 A    
C33   H14   1.084364 S    
C8    C9    1.422133 A    
N4    H19   1.044739 S    
O5    C3    1.296174 A    
C37   C38   1.417983 A    
C31   C36   1.412381 A    
C27   C28   1.401030 A    
C34   N3    1.420471 S    
C6    C7    1.418304 A    
C13   C14   1.413035 A    
Cu2   N1    2.031013 S    
C23   C24   1.392483 A    
N3    H16   1.047564 S    
C35   C36   1.442281 A    
C11   C12   1.406680 A    
N1    C37   1.367198 A    
H11   C37   1.081724 S    
C24   C25   1.418316 A    
C12   N6    1.436440 S    
O3    Cu1   1.964252 S    
C31   C32   1.370483 A    
C17   H4    1.084708 S    
C5    C10   1.386729 A    
C32   C33   1.361437 A    
C11   N5    1.436501 S    
C18   H2    1.082899 S    
C14   C15   1.421726 A    
O3    C2    1.298901 A    
N7    H22   1.045452 S    
C15   C16   1.410812 A    
C3    C30   1.463189 S    
C36   N1    1.370933 A    
O1    C1    1.292889 A    
N6    O9    1.301441 A    
C19   C20   1.394697 A    
Cu1   N2    2.030405 S    
Cu2   O8    1.964251 S    
C7    C8    1.419372 A    
C21   C26   1.420869 A    
C13   C18   1.397649 A    
N6    O10   1.301314 A    
N5    H21   1.046154 S    
H10   C29   1.083148 S    
O8    C4    1.303825 A    
C4    C6    1.464475 S    
C24   H9    1.080534 S    
C25   C26   1.408358 A    
C25   C30   1.420505 A    
C15   C20   1.399300 A    
Cu1   O5    1.967050 S    
C32   H13   1.083506 S    
C18   C19   1.394592 A    
C20   H3    1.083535 S    
O1    Cu1   1.971099 S    
O2    Cu2   1.967053 S    
N5    H20   1.045489 S    
O6    C3    1.307724 A    
O4    Cu2   1.970810 S    
C5    H1    1.085449 S    
C10   C17   1.398817 A    
C1    C27   1.467448 S    
C38   N2    1.365660 A    
C21   C22   1.393951 A    
C9    C14   1.406686 A    
C34   C35   1.463726 A    
C35   N2    1.416657 A    
C22   C23   1.387493 A    
C22   H7    1.082831 S    
C33   C34   1.400121 A    
O2    C1    1.312388 A    
N4    H18   1.045862 S    
H15   C38   1.081817 S    
C2    C19   1.455298 S    
Cu2   O6    1.971098 S    
C29   C30   1.398495 A    
C12   C13   1.407741 A    
C23   H8    1.082715 S    
