data_mof_unit_pretest_1069.cif
_audit_creation_date              2012-12-11T17:19:16-0500
_audit_creation_method            fapswitch 2.2
_symmetry_space_group_name_H-M    P1
_symmetry_Int_Tables_number       1
_space_group_crystal_system       triclinic
_cell_length_a                    14.569534
_cell_length_b                    7.261426
_cell_length_c                    13.586246
_cell_angle_alpha                 90.016488
_cell_angle_beta                  100.017975
_cell_angle_gamma                 89.916879
_cell_volume                      1415.44828479

loop_
_atom_site_label
_atom_site_type_symbol
_atom_type_description
_atom_site_fract_x
_atom_site_fract_y
_atom_site_fract_z
_atom_type_partial_charge
O1    O     O_R   0.648180 0.355050 0.151550 -0.528734
O2    O     O_R   0.351820 0.644950 0.848450 -0.528214
O3    O     O_R   0.851820 0.855050 0.348450 -0.528470
O4    O     O_R   0.148180 0.144950 0.651550 -0.529957
O5    O     O_R   0.835240 0.681980 0.154280 -0.530989
O6    O     O_R   0.164760 0.318020 0.845720 -0.530665
O7    O     O_R   0.664760 0.181980 0.345720 -0.531803
O8    O     O_R   0.335240 0.818020 0.654280 -0.532179
H1    H     H_    0.686082 0.789522 0.806198 0.129646
H2    H     H_    0.314315 0.213667 0.193993 0.128717
H3    H     H_    0.804808 0.393627 0.683237 0.131263
H4    H     H_    0.190672 0.672769 0.312066 0.128444
C1    C     C_R   0.865857 0.516226 0.135697 0.783063
C2    C     C_R   0.134724 0.484239 0.864903 0.761448
C3    C     C_R   0.634361 0.016395 0.364504 0.783372
C4    C     C_R   0.365527 0.983652 0.635345 0.780647
O9    O     O_R   0.647870 0.684600 0.139630 -0.540608
O10   O     O_R   0.352130 0.315400 0.860370 -0.541091
O11   O     O_R   0.852130 0.184600 0.360370 -0.543619
O12   O     O_R   0.147870 0.815400 0.639630 -0.538878
O13   O     O_R   0.663110 0.857440 0.333700 -0.538575
O14   O     O_R   0.336890 0.142560 0.666300 -0.539287
O15   O     O_R   0.836890 0.357440 0.166300 -0.538701
O16   O     O_R   0.163110 0.642560 0.833700 -0.540849
C5    C     C_R   0.615114 0.516006 0.113145 0.702653
C6    C     C_R   0.384915 0.483989 0.886822 0.701981
C7    C     C_R   0.885014 0.015845 0.386682 0.702322
C8    C     C_R   0.115236 0.984012 0.612997 0.709707
O17   O     O_3   0.755220 0.522230 0.313690 -0.376512
O18   O     O_3   0.244780 0.477770 0.686310 -0.376134
O19   O     O_3   0.744780 0.022230 0.186310 -0.373833
O20   O     O_3   0.255220 0.977770 0.813690 -0.374383
V1    V     V_3+5 0.749030 0.796100 0.238190 1.423906
V2    V     V_3+5 0.250970 0.203900 0.761810 1.427041
V3    V     V_3+5 0.750970 0.296100 0.261810 1.417217
V4    V     V_3+5 0.249030 0.703900 0.738190 1.425173
C9    C     C_1   0.966336 0.004823 0.466328 -0.214484
C10   C     C_1   0.034392 0.994168 0.532724 -0.199245
C11   C     C_1   0.534026 0.505405 0.033183 -0.208187
C12   C     C_1   0.466005 0.494590 0.966782 -0.208744
H5    H     H_    0.208418 0.207555 0.315063 0.134059
H6    H     H_    0.792170 0.797788 0.685284 0.136817
H7    H     H_    0.298214 0.650426 0.193081 0.131112
H8    H     H_    0.704283 0.354058 0.806021 0.131984
C13   C     C_R   0.566623 0.888950 0.702924 0.261353
C14   C     C_R   0.433406 0.112017 0.297006 0.260767
C15   C     C_R   0.930027 0.453616 0.791262 0.265098
C16   C     C_R   0.068884 0.594002 0.205878 0.257407
C17   C     C_R   0.659671 0.832910 0.730232 -0.166072
C18   C     C_R   0.340606 0.169704 0.269885 -0.163406
C19   C     C_R   0.835406 0.407714 0.761289 -0.139314
C20   C     C_R   0.163771 0.634275 0.235426 -0.161416
C21   C     C_R   0.719989 0.837801 0.662321 -0.166278
C22   C     C_R   0.280369 0.165839 0.337898 -0.165939
C23   C     C_R   0.777062 0.387695 0.830680 -0.183807
C24   C     C_R   0.224865 0.621830 0.168519 -0.171897
C25   C     C_R   0.688581 0.896960 0.565417 -0.151331
C26   C     C_R   0.311566 0.105476 0.434656 -0.153863
C27   C     C_R   0.810326 0.419871 0.930996 -0.155234
C28   C     C_R   0.192289 0.572719 0.070144 -0.152522
C29   C     C_R   0.594306 0.948658 0.532461 0.012462
C30   C     C_R   0.405661 0.052297 0.467458 0.013543
C31   C     C_R   0.904991 0.464738 0.965736 0.023397
C32   C     C_R   0.096441 0.537677 0.035148 0.022726
C33   C     C_R   0.530841 0.943214 0.601718 0.036963
C34   C     C_R   0.469098 0.057354 0.398162 0.036959
C35   C     C_R   0.967673 0.471340 0.895856 0.010906
C36   C     C_R   0.032525 0.546559 0.103858 0.034222
C37   C     C_R   0.564319 0.006956 0.432056 -0.170732
C38   C     C_R   0.435567 0.993269 0.567779 -0.169743
C39   C     C_R   0.936161 0.507042 0.068318 -0.167792
C40   C     C_R   0.064822 0.497157 0.932552 -0.167669
H9    H     H_    0.739902 0.900948 0.516815 0.107483
H10   H     H_    0.260286 0.102080 0.483315 0.106071
H11   H     H_    0.760166 0.409545 0.980736 0.107433
H12   H     H_    0.243655 0.565255 0.021643 0.102771
N1    N     N_2   0.511645 0.892981 0.779612 -0.526287
H13   H     H_    0.517463 0.773516 0.821268 0.253882
C41   C     C_3   0.526955 0.054053 0.843005 -0.511595
H14   H     H_    0.479128 0.050176 0.898260 0.208627
H15   H     H_    0.513111 0.181446 0.797516 0.194770
H16   H     H_    0.599813 0.056723 0.884430 0.174750
N2    N     N_2   0.488231 0.106818 0.220194 -0.526285
H17   H     H_    0.482551 0.225911 0.178231 0.254033
C42   C     C_3   0.472546 0.945257 0.157218 -0.512975
H18   H     H_    0.520150 0.948346 0.101725 0.208804
H19   H     H_    0.399588 0.942656 0.116065 0.175425
H20   H     H_    0.486415 0.818202 0.202988 0.194690
N3    N     N_2   0.984055 0.503612 0.717157 -0.530655
H21   H     H_    0.000204 0.641833 0.717409 0.252951
C43   C     C_3   0.961996 0.424468 0.618169 -0.513022
H22   H     H_    0.023160 0.439268 0.580257 0.208876
H23   H     H_    0.901971 0.497909 0.573273 0.174966
H24   H     H_    0.945875 0.275747 0.622852 0.200093
N4    N     N_2   0.011794 0.604076 0.280386 -0.526452
H25   H     H_    0.019106 0.727165 0.318818 0.255139
C44   C     C_3   0.021661 0.448494 0.347769 -0.515686
H26   H     H_    0.969237 0.459876 0.397628 0.211055
H27   H     H_    0.092267 0.446552 0.394620 0.169357
H28   H     H_    0.010024 0.317623 0.305036 0.196569

loop_
_geom_bond_atom_site_label_1
_geom_bond_atom_site_label_2
_ccdc_geom_bond_type
C26   C30   A    
C16   N4    S    
C23   C27   A    
N4    H25   S    
O10   C6    A    
C44   H26   S    
N1    H13   S    
O1    V3    S    
O16   V4    S    
C32   C36   A    
C14   C34   A    
C16   C20   A    
H6    C21   S    
C34   C37   A    
C43   H23   S    
O3    V1    S    
O2    V4    S    
C33   C38   A    
C30   C38   A    
C35   C40   A    
O8    V4    S    
C2    O16   A    
O4    C8    A    
O5    V1    S    
O19   V1    S    
C8    C10   S    
N3    C43   S    
O11   C7    A    
C25   H9    S    
O5    C1    A    
O7    C3    A    
O8    C4    A    
O1    C5    A    
C15   N3    S    
O9    V1    S    
O14   V2    S    
C15   C35   A    
C44   H27   S    
C1    O15   A    
O4    V2    S    
N1    C41   S    
C3    C37   S    
C31   C35   A    
C30   C34   A    
C42   H19   S    
H1    C17   S    
C41   H14   S    
C43   H22   S    
C41   H15   S    
C21   C25   A    
C15   C19   A    
O12   C8    A    
C42   H18   S    
C28   H12   S    
O6    V2    S    
O20   V2    S    
C9    C10   T    
C29   C33   A    
O6    C2    A    
N2    H17   S    
C13   C17   A    
C4    C38   S    
O2    C6    A    
C18   C22   A    
C16   C36   A    
O10   V2    S    
N2    C42   S    
C31   C39   A    
O15   V3    S    
C13   C33   A    
H2    C18   S    
C27   H11   S    
C11   C12   T    
C44   H28   S    
C26   H10   S    
C22   C26   A    
C42   H20   S    
C29   C37   A    
C14   C18   A    
C4    O14   A    
O7    V3    S    
C41   H16   S    
N4    C44   S    
C25   C29   A    
C1    C39   S    
O17   V3    S    
C27   C31   A    
O18   V4    S    
C28   C32   A    
C2    C40   S    
O3    C7    A    
H4    C20   S    
O9    C5    A    
O11   V3    S    
C5    C11   S    
C43   H24   S    
H8    C23   S    
C6    C12   S    
C7    C9    S    
C36   C39   A    
C17   C21   A    
C19   C23   A    
C32   C40   A    
H5    C22   S    
H3    C19   S    
C14   N2    S    
O12   V4    S    
C24   C28   A    
H7    C24   S    
C3    O13   A    
O13   V1    S    
C13   N1    S    
N3    H21   S    
C20   C24   A    
