data_mof_unit_pretest_394.cif
_audit_creation_date              2012-12-10T16:54:05-0500
_audit_creation_method            fapswitch 2.2
_symmetry_space_group_name_H-M    P1
_symmetry_Int_Tables_number       1
_space_group_crystal_system       triclinic
_cell_length_a                    9.671111
_cell_length_b                    11.058359
_cell_length_c                    13.484304
_cell_angle_alpha                 88.715189
_cell_angle_beta                  73.260394
_cell_angle_gamma                 87.296499
_cell_volume                      1379.39378649

loop_
_atom_site_label
_atom_site_type_symbol
_atom_type_description
_atom_site_fract_x
_atom_site_fract_y
_atom_site_fract_z
_atom_type_partial_charge
C1    C     C_R   0.497706 0.734520 0.495066 0.691421
C2    C     C_R   0.442285 0.525872 0.976451 0.050059
C3    C     C_R   0.481664 0.482434 0.873169 0.065946
C4    C     C_R   0.548159 0.524099 0.030530 0.069911
C5    C     C_R   0.694840 0.499561 0.976571 0.028147
C6    C     C_R   0.730500 0.449043 0.878690 -0.223816
C7    C     C_R   0.621888 0.425643 0.833625 0.208041
C8    C     C_R   0.512024 0.536922 0.137935 -0.314064
C9    C     C_R   0.765330 0.542779 0.130252 0.470932
C10   C     C_R   0.380228 0.499250 0.814382 -0.112846
C11   C     C_2   0.580792 0.058068 0.520867 0.154918
C12   C     C_R   0.423963 0.495938 0.700084 0.818679
C13   C     C_2   0.529935 0.138356 0.461053 0.381018
C14   C     C_2   0.598566 0.928907 0.496215 -0.190476
C15   C     C_2   0.487065 0.866901 0.487327 0.327820
C16   C     C_2   0.045077 0.542546 0.575357 -0.219188
C17   C     C_2   0.891180 0.560447 0.567591 0.518297
C18   C     C_R   0.506561 0.266347 0.491849 0.713080
C19   C     C_R   0.575859 0.512476 0.301211 0.770191
C20   C     C_R   0.802644 0.515554 0.025018 -0.260993
C21   C     C_R   0.619217 0.532509 0.188803 -0.170544
C22   C     C_R   0.238614 0.541782 0.863607 -0.205328
C23   C     C_R   0.199693 0.577801 0.965804 -0.137051
C24   C     C_R   0.299968 0.572549 0.021397 -0.158732
Cu1   Cu    Cu3+1 0.361370 0.499980 0.499980 0.927599
Cu2   Cu    Cu3+1 0.638630 0.500020 0.500020 0.965439
H1    H     H_    0.697302 0.882229 0.502102 0.111516
H2    H     H_    0.067069 0.570282 0.645548 0.172838
H3    H     H_    0.134112 0.485096 0.431441 0.187763
H4    H     H_    0.917088 0.439824 0.454251 0.152209
H5    H     H_    0.840282 0.414904 0.842823 0.148662
H6    H     H_    0.915049 0.503001 0.981656 0.145554
H7    H     H_    0.400633 0.540470 0.183864 0.177282
H8    H     H_    0.159348 0.555062 0.821230 0.144660
H9    H     H_    0.264650 0.610177 0.098090 0.132032
H10   H     H_    0.092924 0.616668 0.000367 0.161026
N1    N     N_2   0.152660 0.501340 0.501130 -0.301027
N2    N     N_2   0.846520 0.501370 0.501160 -0.318824
O1    O     O_R   0.382960 0.678040 0.499980 -0.573323
O2    O     O_R   0.617100 0.678080 0.500020 -0.572963
O3    O     O_R   0.325800 0.499940 0.650950 -0.580167
O4    O     O_R   0.559930 0.499980 0.650990 -0.508927
O5    O     O_R   0.382900 0.321920 0.499980 -0.565394
O6    O     O_R   0.617040 0.321960 0.500020 -0.595355
O7    O     O_R   0.440070 0.500020 0.349010 -0.597649
O8    O     O_R   0.674200 0.500060 0.349050 -0.555143
O9    O     O_3   0.874484 0.565484 0.174625 -0.616003
C25   C     C_3   0.850148 0.680671 0.223215 0.108251
H11   H     H_    0.894155 0.674693 0.290843 0.165841
H12   H     H_    0.733897 0.709305 0.254448 0.111461
C26   C     C_3   0.928295 0.779324 0.149728 -0.416974
H13   H     H_    0.046824 0.761181 0.130989 0.223280
H14   H     H_    0.896234 0.779305 0.076944 0.218088
C27   C     C_3   0.891472 0.904157 0.199050 -0.896861
H15   H     H_    0.773961 0.926996 0.215321 0.266218
H16   H     H_    0.952354 0.973508 0.145246 0.260130
H17   H     H_    0.921493 0.906229 0.272554 0.249450
O10   O     O_3   0.513734 0.095998 0.367772 -0.630408
C28   C     C_3   0.480190 0.184569 0.299732 0.057438
H18   H     H_    0.538421 0.155784 0.219594 0.150318
H19   H     H_    0.520479 0.274996 0.306378 0.140129
C29   C     C_3   0.317838 0.188473 0.309974 -0.318732
H20   H     H_    0.289123 0.100354 0.285694 0.210846
H21   H     H_    0.253925 0.203647 0.391766 0.238472
C30   C     C_3   0.275436 0.286405 0.241525 -0.903790
H22   H     H_    0.281026 0.376794 0.273085 0.269621
H23   H     H_    0.162351 0.275100 0.240545 0.253853
H24   H     H_    0.347334 0.280491 0.160839 0.261136
O11   O     O_3   0.357377 0.930297 0.488996 -0.590008
C31   C     C_3   0.279617 0.883890 0.424046 0.130525
H25   H     H_    0.199971 0.956575 0.416738 0.140393
H26   H     H_    0.210991 0.809156 0.462860 0.153272
C32   C     C_3   0.371970 0.849159 0.313327 -0.369145
H27   H     H_    0.441657 0.924001 0.276733 0.248631
H28   H     H_    0.443687 0.768422 0.314671 0.194955
C33   C     C_3   0.276406 0.819916 0.245350 -0.954872
H29   H     H_    0.209191 0.741842 0.278311 0.254661
H30   H     H_    0.345406 0.796216 0.166461 0.263499
H31   H     H_    0.204816 0.899413 0.239023 0.258544
O12   O     O_3   0.788469 0.629338 0.640663 -0.556821
C34   C     C_3   0.841987 0.738674 0.664493 0.034766
H32   H     H_    0.766005 0.813239 0.654916 0.159790
H33   H     H_    0.949721 0.761823 0.612015 0.109694
C35   C     C_3   0.842982 0.736230 0.777879 -0.344689
H34   H     H_    0.911741 0.658447 0.792139 0.201988
H35   H     H_    0.731164 0.724855 0.828636 0.235652
C36   C     C_3   0.899817 0.852768 0.806718 -0.912645
H36   H     H_    0.012914 0.864395 0.758624 0.264954
H37   H     H_    0.897855 0.848441 0.889455 0.252545
H38   H     H_    0.831128 0.932052 0.794981 0.255915
C37   C     C_3   0.653339 0.322158 0.759353 -0.814274
H39   H     H_    0.692458 0.241179 0.795337 0.215681
H40   H     H_    0.553994 0.297095 0.741771 0.215551
H41   H     H_    0.738409 0.345347 0.687443 0.254128
C38   C     C_3   0.610780 0.091902 0.619777 -0.970746
H42   H     H_    0.644769 0.011616 0.659307 0.238693
H43   H     H_    0.699676 0.155739 0.603019 0.258343
H44   H     H_    0.509796 0.130842 0.673222 0.236026

loop_
_geom_bond_atom_site_label_1
_geom_bond_atom_site_label_2
_ccdc_geom_bond_type
C16   H2    S    
C36   H36   S    
C32   H27   S    
C38   H42   S    
C33   H31   S    
C4    C8    A    
Cu2   O2    S    
Cu1   O5    S    
C34   H32   S    
C19   O8    A    
Cu2   O6    S    
C5    C20   A    
C10   C22   A    
C12   O3    A    
C13   C18   S    
C19   C21   S    
C35   H35   S    
C3    C7    A    
C5    C6    A    
C11   C14   S    
H4    N2    S    
C12   O4    A    
C1    O2    A    
Cu1   N1    S    
C25   C26   S    
C16   C17   S    
C30   H23   S    
C29   H21   S    
C23   C24   A    
C35   C36   S    
C31   H25   S    
C1    C15   S    
C14   H1    S    
C16   N1    D    
C17   N2    D    
C25   H12   S    
C6    H5    S    
C28   H18   S    
C32   H28   S    
C22   H8    S    
C34   H33   S    
C15   O11   S    
C27   H16   S    
C38   H44   S    
C24   H9    S    
C28   H19   S    
C26   H13   S    
C33   H29   S    
Cu1   O3    S    
C37   H39   S    
Cu2   O8    S    
Cu2   N2    S    
C13   O10   S    
Cu1   Cu2   S    
C17   O12   S    
C26   H14   S    
C2    C4    A    
C29   H20   S    
C18   O6    A    
C37   H40   S    
C9    C20   A    
O9    C25   S    
C30   H24   S    
C7    C37   S    
C31   C32   S    
C19   O7    A    
C8    C21   A    
C35   H34   S    
C10   C12   S    
C25   H11   S    
C9    O9    S    
C36   H37   S    
C2    C24   A    
C32   C33   S    
Cu1   O7    S    
C34   C35   S    
Cu2   O4    S    
C20   H6    S    
C11   C38   S    
C27   H15   S    
C28   C29   S    
C29   C30   S    
C14   C15   D    
C33   H30   S    
O12   C34   S    
C38   H43   S    
C6    C7    A    
C26   C27   S    
C2    C3    A    
O10   C28   S    
C3    C10   A    
C18   O5    A    
Cu1   O1    S    
C37   H41   S    
C11   C13   D    
C9    C21   A    
C8    H7    S    
C30   H22   S    
O11   C31   S    
C1    O1    A    
C4    C5    A    
C23   H10   S    
C36   H38   S    
H3    N1    S    
C22   C23   A    
C31   H26   S    
C27   H17   S    
