data_mof_unit_pretest_1533.cif
_audit_creation_date              2012-10-26T18:39:53-0400
_audit_creation_method            fapswitch 2.2
_symmetry_space_group_name_H-M    P1
_symmetry_Int_Tables_number       1
_space_group_crystal_system       triclinic
_cell_length_a                    27.377455
_cell_length_b                    27.28846
_cell_length_c                    18.065432
_cell_angle_alpha                 89.901148
_cell_angle_beta                  89.978468
_cell_angle_gamma                 90.123857
_cell_volume                      13496.4254488

loop_
_atom_site_label
_atom_site_type_symbol
_atom_type_description
_atom_site_fract_x
_atom_site_fract_y
_atom_site_fract_z
_atom_type_partial_charge
C1    C     C_R   0.066298 0.433653 0.500031 0.642267
C2    C     C_R   0.000395 0.499642 0.840170 0.043640
C3    C     C_R   0.500548 0.000289 0.159834 0.042389
C4    C     C_R   0.500555 0.000339 0.840095 0.042729
C5    C     C_R   0.005907 0.543747 0.200309 0.216887
C6    C     C_R   0.999978 0.455256 0.799340 0.215062
C7    C     C_R   0.996643 0.455365 0.200825 0.212262
C8    C     C_R   0.002133 0.544106 0.799366 0.222227
C9    C     C_R   0.502925 0.044628 0.200621 0.215069
C10   C     C_R   0.501576 0.955870 0.799592 0.212666
C11   C     C_R   0.499454 0.955816 0.200627 0.211150
C12   C     C_R   0.933321 0.566567 0.500041 0.611249
C13   C     C_R   0.500842 0.044732 0.799138 0.213701
C14   C     C_R   0.005110 0.542804 0.278430 0.090520
C15   C     C_R   0.998912 0.456723 0.721082 0.073819
C16   C     C_R   0.995664 0.456913 0.279107 0.059176
C17   C     C_R   0.001260 0.543114 0.721264 0.093538
C18   C     C_R   0.501725 0.043250 0.278893 0.069229
C19   C     C_R   0.500728 0.956870 0.721485 0.077977
C20   C     C_R   0.498558 0.956891 0.278742 0.075825
C21   C     C_R   0.499621 0.043293 0.720873 0.067930
C22   C     C_R   0.852731 0.401419 0.539373 0.204918
C23   C     C_R   0.933937 0.433417 0.500050 0.626003
C24   C     C_R   0.098908 0.647274 0.459582 0.192887
C25   C     C_R   0.148371 0.595563 0.540445 0.216226
C26   C     C_R   0.904868 0.350906 0.460937 0.223074
C27   C     C_R   0.147671 0.402942 0.459400 0.215369
C28   C     C_R   0.865096 0.612194 0.564309 0.221517
C29   C     C_R   0.886658 0.634879 0.437129 0.227522
C30   C     C_R   0.097416 0.352170 0.540815 0.212770
C31   C     C_R   0.404529 0.851184 0.539243 0.221446
C32   C     C_R   0.648339 0.095588 0.460042 0.213124
C33   C     C_R   0.598119 0.147639 0.539159 0.211610
C34   C     C_R   0.066478 0.566175 0.499961 0.625892
C35   C     C_R   0.352423 0.902224 0.461255 0.220605
C36   C     C_R   0.597648 0.853136 0.457939 0.215286
C37   C     C_R   0.352252 0.097050 0.540138 0.220205
C38   C     C_R   0.402993 0.148113 0.459841 0.222838
C39   C     C_R   0.646411 0.902474 0.543267 0.216513
C40   C     C_R   0.816963 0.364593 0.539057 0.228564
C41   C     C_R   0.135752 0.683016 0.459845 0.228983
C42   C     C_R   0.185150 0.631426 0.540938 0.229264
C43   C     C_R   0.868978 0.314144 0.460316 0.237769
C44   C     C_R   0.184007 0.366735 0.459467 0.229556
C45   C     C_R   0.566200 0.933744 0.500051 0.639194
C46   C     C_R   0.829181 0.648749 0.564649 0.231036
C47   C     C_R   0.849921 0.670574 0.437738 0.234730
C48   C     C_R   0.133734 0.315945 0.540824 0.232816
C49   C     C_R   0.368585 0.814507 0.539798 0.237790
C50   C     C_R   0.685058 0.131483 0.459542 0.229541
C51   C     C_R   0.634926 0.183443 0.538906 0.233523
C52   C     C_R   0.316574 0.865453 0.461493 0.233067
C53   C     C_R   0.633927 0.817051 0.458025 0.236486
C54   C     C_R   0.316007 0.133346 0.540133 0.232464
C55   C     C_R   0.366754 0.184420 0.459866 0.237311
C56   C     C_R   0.433721 0.066358 0.499975 0.636798
C57   C     C_R   0.682317 0.866026 0.544305 0.232276
C58   C     C_R   0.824908 0.321002 0.499204 -0.042989
C59   C     C_R   0.178830 0.675245 0.500776 -0.042624
C60   C     C_R   0.177130 0.323128 0.500151 -0.042065
C61   C     C_R   0.821487 0.677705 0.501457 -0.041234
C62   C     C_R   0.324531 0.821584 0.500951 -0.043134
C63   C     C_R   0.678406 0.175468 0.498955 -0.042681
C64   C     C_R   0.676211 0.823352 0.501461 -0.039798
C65   C     C_R   0.323164 0.177128 0.500002 -0.042576
C66   C     C_R   0.000083 0.499570 0.924022 0.371031
C67   C     C_R   0.433843 0.933559 0.500051 0.635954
C68   C     C_R   0.000140 0.499549 0.076159 0.372724
C69   C     C_R   0.500269 0.000392 0.923852 0.372003
C70   C     C_R   0.500273 0.000363 0.075998 0.371750
C71   C     C_R   0.896657 0.394729 0.500121 -0.044923
C72   C     C_R   0.105105 0.603519 0.499954 -0.047317
C73   C     C_R   0.104314 0.395732 0.500090 -0.036080
C74   C     C_R   0.894642 0.604877 0.500420 -0.056865
C75   C     C_R   0.396391 0.895138 0.500203 -0.036903
C76   C     C_R   0.604797 0.103686 0.499726 -0.037943
C77   C     C_R   0.603976 0.895963 0.500295 -0.035471
C78   C     C_R   0.566378 0.066227 0.499939 0.638293
C79   C     C_R   0.395791 0.104354 0.499947 -0.036214
C80   C     C_R   0.216998 0.713063 0.501802 0.399831
C81   C     C_R   0.787052 0.282845 0.498086 0.400067
C82   C     C_R   0.783720 0.715632 0.501993 0.400303
C83   C     C_R   0.215197 0.285128 0.500113 0.406134
C84   C     C_R   0.716742 0.213134 0.498238 0.399934
C85   C     C_R   0.286803 0.783281 0.501680 0.399999
C86   C     C_R   0.285171 0.215186 0.500036 0.405602
C87   C     C_R   0.714028 0.785485 0.501892 0.398263
C88   C     C_3   0.059365 0.603183 0.165988 -0.043884
C89   C     C_R   0.000496 0.499586 0.159881 0.041147
C90   C     C_3   0.039622 0.383913 0.825038 -0.043821
C91   C     C_3   0.029704 0.380449 0.176610 -0.041242
C92   C     C_3   0.051241 0.606488 0.835686 -0.061176
C93   C     C_3   0.546805 0.113694 0.175222 -0.041892
C94   C     C_3   0.549762 0.892935 0.836104 -0.049870
C95   C     C_3   0.544069 0.889779 0.166244 -0.048944
C96   C     C_3   0.541228 0.115987 0.823766 -0.041917
Cl1   Cl    Cl    0.841361 0.456747 0.587092 -0.363410
Cl2   Cl    Cl    0.657924 0.039644 0.412756 -0.424244
Cl3   Cl    Cl    0.542825 0.158941 0.586948 -0.464868
Cl4   Cl    Cl    0.341255 0.957954 0.413939 -0.383545
Cl5   Cl    Cl    0.543359 0.843370 0.406736 -0.460387
Cl6   Cl    Cl    0.341838 0.041356 0.588081 -0.384569
Cl7   Cl    Cl    0.458523 0.158792 0.412164 -0.436520
Cl8   Cl    Cl    0.655804 0.957140 0.594094 -0.423899
Cl9   Cl    Cl    0.762744 0.372765 0.590965 -0.329933
Cl10  Cl    Cl    0.128260 0.737001 0.406621 -0.347949
Cl11  Cl    Cl    0.238504 0.621864 0.594241 -0.349816
Cl12  Cl    Cl    0.044115 0.658609 0.410736 -0.437126
Cl13  Cl    Cl    0.878860 0.260149 0.408377 -0.339030
Cl14  Cl    Cl    0.239212 0.377362 0.410987 -0.342505
Cl15  Cl    Cl    0.794785 0.659441 0.646198 -0.340370
Cl16  Cl    Cl    0.838403 0.705461 0.356714 -0.338522
Cl17  Cl    Cl    0.123513 0.260483 0.589377 -0.347238
Cl18  Cl    Cl    0.378406 0.760337 0.591636 -0.332465
Cl19  Cl    Cl    0.738769 0.121712 0.407128 -0.348383
Cl20  Cl    Cl    0.626890 0.237694 0.591003 -0.349645
Cl21  Cl    Cl    0.262309 0.874033 0.409913 -0.328252
Cl22  Cl    Cl    0.626791 0.764755 0.401159 -0.357382
Cl23  Cl    Cl    0.157542 0.539873 0.588865 -0.425098
Cl24  Cl    Cl    0.260583 0.122656 0.588000 -0.328504
Cl25  Cl    Cl    0.377277 0.240100 0.412043 -0.331908
Cl26  Cl    Cl    0.734133 0.873440 0.601832 -0.357169
Cl27  Cl    Cl    0.960937 0.340977 0.414552 -0.450807
Cl28  Cl    Cl    0.157787 0.458443 0.410793 -0.420650
Cl29  Cl    Cl    0.870761 0.575757 0.645236 -0.349473
Cl30  Cl    Cl    0.922669 0.630319 0.356003 -0.381515
Cl31  Cl    Cl    0.042166 0.341603 0.589284 -0.464604
Cl32  Cl    Cl    0.460599 0.841013 0.585526 -0.433581
Cu1   Cu    Cu3+1 0.000000 0.500000 0.573360 1.104274
Cu2   Cu    Cu3+1 0.000000 0.500000 0.426640 1.096637
Cu3   Cu    Cu3+1 0.500000 0.000000 0.573360 1.104164
Cu4   Cu    Cu3+1 0.500000 0.000000 0.426640 1.103712
H1    H     H_    0.008763 0.576666 0.308811 0.216600
H2    H     H_    0.083778 0.575205 0.140722 0.115067
H3    H     H_    0.071254 0.611575 0.223487 0.156211
H4    H     H_    0.038748 0.351357 0.861868 0.196553
H5    H     H_    0.072544 0.405802 0.840129 0.128085
H6    H     H_    0.042601 0.370396 0.767219 0.163518
H7    H     H_    0.064894 0.399270 0.163880 0.130516
H8    H     H_    0.026696 0.348566 0.138868 0.195657
H9    H     H_    0.029931 0.365996 0.234155 0.150970
H10   H     H_    0.076322 0.580329 0.863845 0.125355
H11   H     H_    0.052206 0.641309 0.867244 0.193761
H12   H     H_    0.996724 0.422951 0.690049 0.184068
H13   H     H_    0.064408 0.614517 0.778640 0.130911
H14   H     H_    0.548095 0.146079 0.138075 0.194365
H15   H     H_    0.578492 0.089973 0.160828 0.131691
H16   H     H_    0.550174 0.127287 0.232957 0.143844
H17   H     H_    0.550245 0.858158 0.867973 0.194691
H18   H     H_    0.575355 0.918830 0.863854 0.124275
H19   H     H_    0.562620 0.884643 0.779043 0.145108
H20   H     H_    0.571833 0.914089 0.139883 0.121043
H21   H     H_    0.542903 0.855228 0.134032 0.197378
H22   H     H_    0.555232 0.880305 0.223728 0.161060
H23   H     H_    0.990998 0.423406 0.310283 0.186140
H24   H     H_    0.574198 0.093912 0.837590 0.129777
H25   H     H_    0.541090 0.148284 0.860961 0.196714
H26   H     H_    0.543508 0.129909 0.766021 0.163512
H27   H     H_    0.001684 0.577210 0.690606 0.164615
H28   H     H_    0.501709 0.077089 0.309924 0.184034
H29   H     H_    0.500776 0.922785 0.691017 0.190322
H30   H     H_    0.496730 0.922868 0.309402 0.192401
H31   H     H_    0.497876 0.077082 0.689662 0.183628
H32   H     H_    0.063163 0.637309 0.133019 0.197807
N1    N     N_R   0.000000 0.500000 0.316380 -0.293756
N2    N     N_R   0.516253 0.039931 0.962823 -0.168657
N3    N     N_R   0.516261 0.039909 0.036799 -0.166573
N4    N     N_R   0.484261 0.960826 0.963004 -0.132212
N5    N     N_R   0.797078 0.236840 0.522139 -0.113380
N6    N     N_R   0.206639 0.758994 0.525588 -0.122158
N7    N     N_R   0.262851 0.702743 0.478125 -0.113996
N8    N     N_R   0.741358 0.293391 0.473934 -0.120687
N9    N     N_R   0.234736 0.269024 0.564717 -0.120697
N10   N     N_R   0.795323 0.762791 0.485923 -0.113511
N11   N     N_R   0.736744 0.703939 0.518112 -0.111069
N12   N     N_R   0.000000 0.500000 0.683620 -0.283071
N13   N     N_R   0.231241 0.265679 0.435469 -0.121601
N14   N     N_R   0.297203 0.737304 0.478063 -0.115125
N15   N     N_R   0.706769 0.259095 0.473996 -0.118366
N16   N     N_R   0.762477 0.202528 0.522190 -0.115364
N17   N     N_R   0.240986 0.793534 0.525560 -0.115834
N18   N     N_R   0.702454 0.738350 0.518213 -0.112299
N19   N     N_R   0.265646 0.231297 0.435430 -0.117886
N20   N     N_R   0.269133 0.234634 0.564680 -0.118990
N21   N     N_R   0.761000 0.797156 0.485728 -0.111784
N22   N     N_R   0.500000 0.000000 0.316380 -0.291076
N23   N     N_R   0.500000 0.000000 0.683620 -0.290482
N24   N     N_R   0.012923 0.458917 0.037179 -0.169565
N25   N     N_R   0.987246 0.540198 0.963046 -0.128505
N26   N     N_R   0.987293 0.540203 0.037045 -0.127198
N27   N     N_R   0.012907 0.458940 0.963205 -0.166242
N28   N     N_R   0.484254 0.960821 0.037004 -0.132039
O1    O     O_R   0.049930 0.450080 0.561970 -0.474480
O2    O     O_R   0.450070 0.049920 0.438030 -0.465731
O3    O     O_R   0.450070 0.049920 0.561970 -0.470258
O4    O     O_R   0.549930 0.950080 0.438030 -0.473383
O5    O     O_R   0.450070 0.950080 0.438030 -0.470555
O6    O     O_R   0.549930 0.049920 0.561970 -0.475137
O7    O     O_R   0.549930 0.049920 0.438030 -0.481182
O8    O     O_R   0.450070 0.950080 0.561970 -0.466882
O9    O     O_3   0.010072 0.588169 0.163959 -0.507140
O10   O     O_3   0.996174 0.410729 0.835691 -0.520016
O11   O     O_3   0.989239 0.411374 0.164419 -0.519565
O12   O     O_R   0.950070 0.549920 0.438030 -0.455075
O13   O     O_3   0.002814 0.588799 0.835168 -0.517135
O14   O     O_3   0.501918 0.089267 0.164177 -0.517675
O15   O     O_3   0.501633 0.911216 0.835757 -0.520040
O16   O     O_3   0.497251 0.911193 0.164719 -0.522215
O17   O     O_3   0.497729 0.089229 0.835479 -0.522203
O18   O     O_R   0.950070 0.549920 0.561970 -0.460383
O19   O     O_R   0.049930 0.450080 0.438030 -0.473576
O20   O     O_R   0.950070 0.450080 0.438030 -0.487098
O21   O     O_R   0.049930 0.549920 0.561970 -0.494969
O22   O     O_R   0.049930 0.549920 0.438030 -0.471983
O23   O     O_R   0.950070 0.450080 0.561970 -0.457655
O24   O     O_R   0.549930 0.950080 0.561970 -0.478400

loop_
_geom_bond_atom_site_label_1
_geom_bond_atom_site_label_2
_ccdc_geom_bond_type
C86   N19   A    
C44   Cl14  S    
C96   H26   S    
C8    O13   S    
C55   Cl25  S    
C21   H31   S    
C12   C74   S    
C1    O19   A    
C28   C46   A    
Cu2   O20   S    
C3    C11   A    
C80   N6    A    
C28   C74   A    
C87   N18   A    
C26   Cl27  S    
C70   N28   A    
C39   Cl8   S    
C87   N21   A    
C54   C65   A    
C23   O23   A    
C94   H17   S    
C90   H6    S    
C37   C79   A    
C35   C75   A    
C56   C79   S    
C15   N12   A    
C29   C47   A    
N24   N27   A    
C39   C77   A    
C30   C48   A    
C76   C78   S    
C6    O10   S    
C54   Cl24  S    
C61   C82   S    
N10   N21   A    
C5    O9    S    
C37   Cl6   S    
C60   C83   S    
C23   O20   A    
C47   Cl16  S    
C39   C57   A    
C66   N25   A    
C45   O24   A    
C88   H32   S    
C93   H16   S    
C50   Cl19  S    
C19   H29   S    
C81   N8    A    
C4    C13   A    
C84   N16   A    
C92   H11   S    
C69   N2    A    
C7    O11   S    
C92   O13   S    
C43   C58   A    
C19   N23   A    
C6    C15   A    
C27   C44   A    
C38   C55   A    
C82   N10   A    
N9    N20   A    
C93   H15   S    
C85   N14   A    
N7    N14   A    
C21   N23   A    
C24   Cl12  S    
C81   N5    A    
C88   O9    S    
C92   H10   S    
C42   Cl11  S    
C16   N1    A    
N5    N16   A    
C27   C73   A    
C17   N12   A    
C52   Cl21  S    
C45   O4    A    
C96   H25   S    
C57   Cl26  S    
C20   H30   S    
C22   Cl1   S    
C46   Cl15  S    
Cu4   O2    S    
C24   C41   A    
Cu2   O19   S    
C2    C6    A    
C31   Cl32  S    
C31   C49   A    
C93   O14   S    
C25   Cl23  S    
C4    C69   S    
C55   C65   A    
C26   C43   A    
C48   C60   A    
C50   C63   A    
C62   C85   S    
Cu3   O3    S    
C11   C20   A    
C40   C58   A    
C41   Cl10  S    
C83   N13   A    
C46   C61   A    
C13   O17   S    
C65   C86   S    
Cu3   O6    S    
C51   C63   A    
C41   C59   A    
C67   O8    A    
C34   O22   A    
C58   C81   S    
Cu4   N22   S    
C30   C73   A    
C53   Cl22  S    
C29   C74   A    
C67   O5    A    
C94   H19   S    
N13   N19   A    
C20   N22   A    
C18   N22   A    
Cu4   O7    S    
C33   C51   A    
C15   H12   S    
C36   Cl5   S    
C33   Cl3   S    
Cu1   O23   S    
C84   N15   A    
C1    O1    A    
C10   O15   S    
C32   C76   A    
C38   Cl7   S    
C3    C9    A    
C23   C71   S    
C56   O3    A    
C90   H4    S    
C33   C76   A    
C31   C75   A    
Cu3   O8    S    
C68   N26   A    
C10   C19   A    
C22   C40   A    
C66   N27   A    
C3    C70   S    
C16   H23   S    
C68   C89   S    
C13   C21   A    
C93   H14   S    
Cu1   N12   S    
C25   C72   A    
C14   N1    A    
C32   C50   A    
C5    C14   A    
C36   C53   A    
Cu2   O22   S    
N11   N18   A    
C91   H7    S    
C37   C54   A    
N8    N15   A    
C7    C16   A    
C83   N9    A    
N6    N17   A    
N2    N3    A    
C56   O2    A    
C67   C75   S    
C78   O7    A    
C4    C10   A    
Cu3   Cu4   S    
C34   C72   S    
C22   C71   A    
C90   H5    S    
Cu2   O12   S    
C28   Cl29  S    
C24   C72   A    
C57   C64   A    
Cu1   Cu2   S    
C95   O16   S    
C30   Cl31  S    
C85   N17   A    
C96   O17   S    
C64   C87   S    
C92   H13   S    
C86   N20   A    
C2    C8    A    
C94   O15   S    
C8    C17   A    
C88   H3    S    
C2    C66   S    
C34   O21   A    
C25   C42   A    
C47   C61   A    
Cu1   O1    S    
C27   Cl28  S    
C59   C80   S    
C14   H1    S    
C94   H18   S    
C78   O6    A    
Cu3   O24   S    
C51   Cl20  S    
N4    N28   A    
C63   C84   S    
C36   C77   A    
C95   H22   S    
C1    C73   S    
C9    O14   S    
C69   N4    A    
C12   O18   A    
C52   C62   A    
C70   N3    A    
Cu2   N1    S    
C96   H24   S    
C11   O16   S    
C26   C71   A    
C44   C60   A    
C90   O10   S    
Cu4   O5    S    
C53   C64   A    
C32   Cl2   S    
C49   Cl18  S    
C12   O12   A    
Cu1   O21   S    
N25   N26   A    
C17   H27   S    
C5    C89   A    
C18   H28   S    
C88   H2    S    
C91   H8    S    
C9    C18   A    
C82   N11   A    
C68   N24   A    
C38   C79   A    
C42   C59   A    
C35   C52   A    
Cu4   O4    S    
C48   Cl17  S    
C49   C62   A    
C45   C77   S    
C95   H20   S    
C43   Cl13  S    
C80   N7    A    
C95   H21   S    
Cu1   O18   S    
C29   Cl30  S    
C91   O11   S    
C35   Cl4   S    
Cu3   N23   S    
C40   Cl9   S    
C91   H9    S    
C7    C89   A    
