data_mof_unit_pretest_552.cif
_audit_creation_date              2012-12-11T16:44:15-0500
_audit_creation_method            fapswitch 2.2
_symmetry_space_group_name_H-M    P1
_symmetry_Int_Tables_number       1
_space_group_crystal_system       triclinic
_cell_length_a                    27.370012
_cell_length_b                    7.195265
_cell_length_c                    22.764093
_cell_angle_alpha                 90.006166
_cell_angle_beta                  101.195838
_cell_angle_gamma                 90.003658
_cell_volume                      4397.71952473

loop_
_atom_site_label
_atom_site_type_symbol
_atom_type_description
_atom_site_fract_x
_atom_site_fract_y
_atom_site_fract_z
_atom_type_partial_charge
O1    O     O_R   0.707300 0.594030 0.176840 -0.522473
O2    O     O_R   0.292700 0.405970 0.823160 -0.536702
O3    O     O_R   0.792700 0.094030 0.323160 -0.534233
O4    O     O_R   0.207300 0.905970 0.676840 -0.538887
O5    O     O_R   0.697330 0.262360 0.295660 -0.545057
O6    O     O_R   0.302670 0.737640 0.704340 -0.532172
O7    O     O_R   0.802670 0.762360 0.204340 -0.545230
O8    O     O_R   0.197330 0.237640 0.795660 -0.543391
C1    C     C_R   0.684832 0.432516 0.311832 0.730348
C2    C     C_R   0.315116 0.567483 0.688097 0.737183
C3    C     C_R   0.815230 0.932533 0.188256 0.657284
C4    C     C_R   0.184775 0.067459 0.811751 0.658257
O9    O     O_R   0.701410 0.264250 0.175600 -0.540931
O10   O     O_R   0.298590 0.735750 0.824400 -0.528061
O11   O     O_R   0.798590 0.764250 0.324400 -0.537944
O12   O     O_R   0.201410 0.235750 0.675600 -0.531888
O13   O     O_R   0.796800 0.094950 0.202240 -0.542676
O14   O     O_R   0.203200 0.905050 0.797760 -0.544288
O15   O     O_R   0.703200 0.594950 0.297760 -0.526998
O16   O     O_R   0.296800 0.405050 0.702240 -0.542042
C5    C     C_R   0.689404 0.432712 0.153885 0.767071
C6    C     C_R   0.310425 0.566910 0.846202 0.772695
C7    C     C_R   0.810430 0.933073 0.346263 0.662429
C8    C     C_R   0.189426 0.067288 0.653768 0.660970
O17   O     O_3   0.781290 0.427390 0.258880 -0.381458
O18   O     O_3   0.218710 0.572610 0.741120 -0.380120
O19   O     O_3   0.718710 0.927390 0.241120 -0.363459
O20   O     O_3   0.281290 0.072610 0.758880 -0.368202
V1    V     V_3+5 0.744190 0.152150 0.248350 1.432135
V2    V     V_3+5 0.255810 0.847850 0.751650 1.451955
V3    V     V_3+5 0.755810 0.652150 0.251650 1.454160
V4    V     V_3+5 0.244190 0.347850 0.748350 1.437606
C9    C     C_R   0.153333 0.062763 0.596122 -0.103386
C10   C     C_R   0.846239 0.944763 0.403886 -0.101683
C11   C     C_R   0.346216 0.554600 0.903678 -0.056481
C12   C     C_R   0.653117 0.437338 0.096585 -0.061064
C13   C     C_R   0.136629 0.142445 0.490871 -0.149812
C14   C     C_R   0.858502 0.990977 0.510968 -0.154415
C15   C     C_R   0.357841 0.501240 0.010368 -0.155583
C16   C     C_R   0.637155 0.363330 0.990939 -0.159203
C17   C     C_R   0.168545 0.139563 0.546272 -0.152785
C18   C     C_R   0.827067 0.979499 0.455330 -0.162299
C19   C     C_R   0.326698 0.517748 0.954749 -0.210785
C20   C     C_R   0.669029 0.367003 0.046301 -0.208611
C21   C     C_R   0.104226 0.990703 0.590413 -0.078218
C22   C     C_R   0.898491 0.924587 0.408214 -0.078532
C23   C     C_R   0.398707 0.571737 0.908363 -0.065413
C24   C     C_R   0.603190 0.501647 0.091419 -0.069708
C25   C     C_R   0.068685 0.020785 0.535617 0.082196
C26   C     C_R   0.931553 0.965458 0.464084 0.080342
C27   C     C_R   0.431233 0.526876 0.964145 -0.000743
C28   C     C_R   0.568180 0.472176 0.036264 -0.000763
C29   C     C_R   0.087085 0.084736 0.485042 0.111981
C30   C     C_R   0.910273 0.984693 0.515882 0.113537
C31   C     C_R   0.409619 0.505095 0.015590 0.144816
C32   C     C_R   0.587180 0.414732 0.985392 0.145195
C33   C     C_R   0.015581 0.999417 0.529147 0.070420
C34   C     C_R   0.984308 0.996605 0.470734 0.066397
C35   C     C_R   0.484026 0.496169 0.971010 0.056692
C36   C     C_R   0.514965 0.490428 0.029542 0.056423
C37   C     C_R   0.005440 0.052633 0.421895 -0.091732
C38   C     C_R   0.992177 0.009163 0.578972 -0.095312
C39   C     C_R   0.491190 0.475763 0.078985 -0.204024
C40   C     C_R   0.505602 0.444162 0.922079 -0.205472
C41   C     C_R   0.055508 0.098484 0.429162 -0.182526
C42   C     C_R   0.940681 0.004962 0.572299 -0.193462
C43   C     C_R   0.439697 0.480281 0.071958 -0.185792
C44   C     C_R   0.555860 0.401822 0.929359 -0.187899
H1    H     H_    0.069483 0.148774 0.390659 0.129515
H2    H     H_    0.924426 0.021163 0.611805 0.125770
H3    H     H_    0.423183 0.461078 0.111146 0.124505
H4    H     H_    0.570233 0.355491 0.890676 0.124585
H5    H     H_    0.787231 0.992486 0.452564 0.108939
H6    H     H_    0.206042 0.193072 0.549966 0.111225
H7    H     H_    0.707010 0.318932 0.049672 0.113403
H8    H     H_    0.286794 0.506204 0.951700 0.110626
H9    H     H_    0.150327 0.196555 0.452667 0.117987
H10   H     H_    0.842229 0.011030 0.550286 0.116575
H11   H     H_    0.341300 0.479318 0.049392 0.117207
H12   H     H_    0.651343 0.314247 0.952451 0.117268
H13   H     H_    0.982844 0.078690 0.378294 0.131520
H14   H     H_    0.012878 0.037641 0.623417 0.127648
H15   H     H_    0.511477 0.442783 0.123254 0.146060
H16   H     H_    0.483348 0.418194 0.878292 0.145392
C45   C     C_R   0.867760 0.117503 0.129924 -0.156797
C46   C     C_R   0.132091 0.882322 0.869845 -0.154874
C47   C     C_R   0.632143 0.617640 0.369921 -0.128968
C48   C     C_R   0.367537 0.382524 0.629621 -0.156437
H17   H     H_    0.850629 0.244756 0.141305 0.123873
H18   H     H_    0.149023 0.755002 0.858169 0.123855
H19   H     H_    0.649107 0.744948 0.358292 0.124968
H20   H     H_    0.350371 0.255295 0.640961 0.123940
C49   C     C_R   0.903516 0.130037 0.093776 -0.145958
C50   C     C_R   0.096398 0.869724 0.906077 -0.145179
C51   C     C_R   0.596410 0.630241 0.406098 -0.150913
C52   C     C_R   0.403292 0.369975 0.593473 -0.145552
H21   H     H_    0.912282 0.265758 0.078059 0.101250
H22   H     H_    0.087512 0.733870 0.921577 0.101008
H23   H     H_    0.587530 0.766088 0.421613 0.100483
H24   H     H_    0.412024 0.234265 0.577712 0.101331
C53   C     C_R   0.926789 0.969708 0.077035 0.094317
C54   C     C_R   0.073341 0.030102 0.923159 0.094546
C55   C     C_R   0.573304 0.469873 0.423106 0.093840
C56   C     C_R   0.426619 0.530276 0.576802 0.093776
C57   C     C_R   0.913298 0.796085 0.097634 -0.139909
C58   C     C_R   0.087019 0.203851 0.902836 -0.143119
C59   C     C_R   0.586973 0.296131 0.402761 -0.142087
C60   C     C_R   0.413170 0.703891 0.597454 -0.147319
H25   H     H_    0.930892 0.669801 0.086293 0.101564
H26   H     H_    0.069598 0.330217 0.914417 0.101497
H27   H     H_    0.569513 0.169775 0.414281 0.102295
H28   H     H_    0.430804 0.830151 0.586166 0.101811
C61   C     C_R   0.877406 0.783363 0.133862 -0.154679
C62   C     C_R   0.122880 0.216647 0.866567 -0.159443
C63   C     C_R   0.622875 0.283334 0.366548 -0.161290
C64   C     C_R   0.377279 0.716628 0.633682 -0.133216
H29   H     H_    0.868059 0.647372 0.148812 0.122644
H30   H     H_    0.132393 0.352750 0.851873 0.123124
H31   H     H_    0.632375 0.147241 0.351828 0.124654
H32   H     H_    0.367978 0.852603 0.648694 0.124306
C65   C     C_R   0.854024 0.944029 0.150458 -0.048437
C66   C     C_R   0.146018 0.055920 0.849604 -0.048663
C67   C     C_R   0.646063 0.444049 0.349664 -0.035277
C68   C     C_R   0.353857 0.555985 0.650226 -0.032395
C69   C     C_R   0.966512 0.851377 0.993083 -0.152228
C70   C     C_R   0.033647 0.148312 0.007177 -0.151834
C71   C     C_R   0.533503 0.351571 0.507016 -0.153972
C72   C     C_R   0.466431 0.648665 0.492937 -0.153750
H33   H     H_    0.940340 0.736936 0.986005 0.109483
H34   H     H_    0.059822 0.262735 0.014280 0.110053
H35   H     H_    0.559652 0.237086 0.514116 0.109298
H36   H     H_    0.440287 0.763176 0.485868 0.109653
C73   C     C_R   0.001456 0.866818 0.955811 -0.150707
C74   C     C_R   0.998686 0.132914 0.044429 -0.149663
C75   C     C_R   0.498507 0.366964 0.544224 -0.149668
C76   C     C_R   0.501409 0.633226 0.455708 -0.149461
H37   H     H_    0.001217 0.763482 0.921184 0.110366
H38   H     H_    0.998892 0.236288 0.079039 0.111287
H39   H     H_    0.498663 0.263526 0.578796 0.111122
H40   H     H_    0.501221 0.736630 0.421120 0.111593
C77   C     C_R   0.035559 0.015440 0.962343 0.081879
C78   C     C_R   0.964593 0.984285 0.037895 0.082125
C79   C     C_R   0.464447 0.515675 0.537697 0.083490
C80   C     C_R   0.535482 0.484528 0.462236 0.083254
C81   C     C_2   0.916174 0.838698 0.356709 0.357297
H41   H     H_    0.896469 0.863320 0.311225 0.026677
O21   O     O_2   0.951637 0.732429 0.364825 -0.517975
C82   C     C_2   0.093496 0.868326 0.638959 0.359541
H42   H     H_    0.110844 0.894437 0.685261 0.035464
O22   O     O_2   0.066719 0.732176 0.627327 -0.517781
C83   C     C_2   0.589705 0.619064 0.139695 0.316544
H43   H     H_    0.562613 0.729773 0.128111 0.070653
O23   O     O_2   0.607278 0.591183 0.192446 -0.536903
C84   C     C_2   0.418750 0.660467 0.858876 0.307408
H44   H     H_    0.452734 0.741811 0.869202 0.072978
O24   O     O_2   0.398541 0.641598 0.806518 -0.541191

loop_
_geom_bond_atom_site_label_1
_geom_bond_atom_site_label_2
_ccdc_geom_bond_type
O17   V3    S    
C48   C52   A    
O1    C5    A    
C47   H19   S    
O19   V1    S    
C21   C82   S    
C9    C21   A    
O3    C7    A    
C10   C18   A    
C48   C68   A    
C11   C23   A    
C55   C80   S    
C81   H41   S    
C25   C33   A    
C33   C38   A    
C5    C12   S    
C73   H37   S    
C6    C11   S    
C35   C40   A    
C26   C30   A    
C58   C62   A    
C36   C39   A    
C40   C44   A    
C57   C61   A    
C71   C75   A    
C14   C18   A    
C2    C68   S    
C72   C76   A    
C58   H26   S    
O4    C8    A    
C51   H23   S    
C22   C81   S    
C70   H34   S    
O1    V3    S    
O13   V1    S    
O2    V4    S    
O3    V1    S    
C40   H16   S    
C46   C50   A    
C17   H6    S    
C45   C49   A    
C1    O15   A    
C15   C31   A    
C48   H20   S    
C2    O16   A    
C16   C32   A    
C47   C51   A    
O2    C6    A    
C43   H3    S    
C83   H43   S    
C16   H12   S    
C45   C65   A    
C10   C22   A    
C54   C77   S    
C11   C19   A    
C16   C20   A    
C84   O24   D    
C76   H40   S    
C13   C29   A    
C34   C37   A    
O11   C7    A    
C38   H14   S    
O15   V3    S    
C35   C36   A    
O12   C8    A    
C3    C65   S    
O10   V2    S    
C72   H36   S    
C81   O21   D    
C51   C55   A    
O7    C3    A    
O5    V1    S    
C53   C57   A    
C39   C43   A    
O7    V3    S    
C38   C42   A    
C26   C34   A    
C63   C67   A    
C82   H42   S    
C4    C66   S    
C46   H18   S    
C49   C53   A    
C45   H17   S    
O18   V4    S    
C23   C27   A    
C14   H10   S    
C32   C44   A    
C13   H9    S    
C64   H32   S    
C39   H15   S    
C44   H4    S    
O8    V4    S    
C20   H7    S    
C75   H39   S    
O5    C1    A    
C37   C41   A    
C74   C78   A    
C53   C78   S    
C31   C43   A    
C14   C30   A    
C21   C25   A    
C69   C78   A    
O8    C4    A    
C7    C10   S    
C56   C79   S    
O9    C5    A    
C59   C63   A    
C84   H44   S    
C62   H30   S    
C61   H29   S    
O6    V2    S    
C63   H31   S    
C52   C56   A    
C69   H33   S    
O14   V2    S    
C12   C20   A    
C27   C35   A    
O9    V1    S    
C49   H21   S    
C56   C60   A    
C29   C41   A    
O16   V4    S    
C69   C73   A    
C19   H8    S    
C57   H25   S    
C3    O13   A    
C18   H5    S    
C64   C68   A    
C59   H27   S    
C82   O22   D    
C74   H38   S    
C15   C19   A    
O11   V3    S    
C30   C42   A    
C23   C84   S    
O12   V4    S    
C22   C26   A    
C70   C77   A    
C73   C77   A    
C8    C9    S    
C9    C17   A    
O10   C6    A    
O20   V2    S    
C76   C80   A    
C37   H13   S    
C47   C67   A    
C60   C64   A    
C33   C34   A    
C42   H2    S    
C41   H1    S    
C52   H24   S    
C75   C79   A    
C1    C67   S    
C12   C24   A    
C27   C31   A    
C71   C80   A    
C83   O23   D    
C13   C17   A    
C46   C66   A    
C72   C79   A    
C71   H35   S    
C25   C29   A    
O6    C2    A    
C24   C83   S    
C62   C66   A    
C60   H28   S    
C24   C28   A    
C61   C65   A    
C70   C74   A    
C28   C36   A    
C54   C58   A    
C4    O14   A    
C50   H22   S    
C55   C59   A    
O4    V2    S    
C28   C32   A    
C50   C54   A    
C15   H11   S    
