data_mof_unit_pretest_766.cif
_audit_creation_date              2013-03-05T15:47:25-0500
_audit_creation_method            fapswitch 2.2
_symmetry_space_group_name_H-M    P1
_symmetry_Int_Tables_number       1
_space_group_crystal_system       triclinic
_cell_length_a                    38.86002
_cell_length_b                    21.941034
_cell_length_c                    22.011658
_cell_angle_alpha                 89.952286
_cell_angle_beta                  124.200745
_cell_angle_gamma                 89.918247
_cell_volume                      15522.2816377

loop_
_atom_site_label
_atom_site_type_symbol
_atom_site_description
_atom_site_fract_x
_atom_site_fract_y
_atom_site_fract_z
_atom_type_partial_charge
O1    O     O_R   1.000000 0.947790 0.090180 -0.580645
O2    O     O_R   0.000000 0.947790 0.909820 -0.584632
O3    O     O_R   0.500000 0.447790 0.090180 -0.586871
O4    O     O_R   0.500000 0.447790 0.909820 -0.573580
O5    O     O_R   0.000000 0.052210 0.090190 -0.555945
O6    O     O_R   1.000000 0.052210 0.909810 -0.555221
O7    O     O_R   0.500000 0.552210 0.090190 -0.555951
O8    O     O_R   0.500000 0.552210 0.909810 -0.554769
C1    C     C_R   0.000095 0.000094 0.118572 0.854284
C2    C     C_R   0.000285 0.999868 0.881755 0.845356
C3    C     C_R   0.499798 0.499825 0.118316 0.848379
C4    C     C_R   0.499862 0.499986 0.881336 0.845924
O9    O     O_R   0.060280 0.947790 0.060280 -0.598354
O10   O     O_R   0.939720 0.947790 0.939720 -0.568380
O11   O     O_R   0.560280 0.447790 0.060280 -0.568349
O12   O     O_R   0.439720 0.447790 0.939720 -0.589492
O13   O     O_R   0.060280 0.052210 0.060300 -0.530216
O14   O     O_R   0.939720 0.052210 0.939700 -0.540542
O15   O     O_R   0.560280 0.552210 0.060300 -0.539417
O16   O     O_R   0.439720 0.552210 0.939700 -0.539048
C5    C     C_R   0.079715 0.999867 0.079052 0.854911
C6    C     C_R   0.920295 0.000163 0.920593 0.850795
C7    C     C_R   0.579708 0.500088 0.079922 0.850276
C8    C     C_R   0.420294 0.500149 0.920601 0.849427
Cu1   Cu    Cu3+1 0.000000 0.938180 0.000000 1.077166
Cu2   Cu    Cu3+1 0.500000 0.438180 0.000000 1.082497
Cu3   Cu    Cu3+1 0.000000 0.061820 0.000000 1.200374
Cu4   Cu    Cu3+1 0.500000 0.561820 0.000000 1.194638
C9    C     C_3   0.224217 0.931865 0.252243 0.335501
C10   C     C_3   0.776295 0.939018 0.748264 0.338005
C11   C     C_3   0.723958 0.438847 0.252786 0.338793
C12   C     C_3   0.276265 0.438835 0.748501 0.333897
C13   C     C_3   0.224700 0.049349 0.265729 0.004686
C14   C     C_3   0.775692 0.057652 0.742933 0.005127
C15   C     C_3   0.724368 0.557328 0.259575 0.006009
C16   C     C_3   0.275767 0.557462 0.742984 0.005285
C17   C     C_3   0.274179 0.052533 0.319671 0.196966
C18   C     C_3   0.726065 0.060155 0.687429 0.213819
C19   C     C_3   0.774032 0.559596 0.314719 0.213351
C20   C     C_3   0.226151 0.560067 0.687346 0.212876
H1    H     H_    0.213744 0.037186 0.300361 0.238937
H2    H     H_    0.788564 0.050853 0.710113 0.249821
H3    H     H_    0.711716 0.549688 0.292612 0.249641
H4    H     H_    0.288696 0.550598 0.710257 0.250268
C21   C     C_1   0.375652 0.000832 0.375770 -0.068002
C22   C     C_1   0.624440 0.002287 0.624548 -0.068443
C23   C     C_1   0.875578 0.502161 0.375700 -0.067757
C24   C     C_1   0.124436 0.502371 0.624481 -0.067198
C25   C     C_3   0.208273 0.995969 0.207627 -0.300826
C26   C     C_3   0.791870 0.000737 0.796238 -0.299386
C27   C     C_3   0.708163 0.501084 0.205505 -0.299007
C28   C     C_3   0.291859 0.500593 0.796364 -0.300430
C29   C     C_3   0.275715 0.931572 0.296593 0.147096
C30   C     C_3   0.725167 0.937252 0.703086 0.166612
C31   C     C_3   0.775063 0.436980 0.297522 0.167381
C32   C     C_3   0.225124 0.437211 0.703180 0.165452
C33   C     C_3   0.291753 0.000044 0.291281 -0.225288
C34   C     C_3   0.708361 0.004087 0.711266 -0.225729
C35   C     C_3   0.791667 0.504116 0.289892 -0.226506
C36   C     C_3   0.208353 0.504145 0.711199 -0.224087
C37   C     C_3   0.275441 0.013090 0.206156 0.384323
C38   C     C_3   0.724161 0.013050 0.797095 0.386321
C39   C     C_3   0.775618 0.514213 0.204079 0.388792
C40   C     C_3   0.224085 0.513267 0.796966 0.380147
C41   C     C_3   0.226504 0.000819 0.158643 0.019521
C42   C     C_3   0.773447 0.001250 0.845054 0.025725
C43   C     C_3   0.726361 0.502693 0.156373 0.023491
C44   C     C_3   0.273363 0.501331 0.845069 0.026330
C45   C     C_1   0.338038 0.001281 0.337728 0.236728
C46   C     C_1   0.662061 0.003942 0.663374 0.236834
C47   C     C_1   0.837957 0.503825 0.337306 0.236455
C48   C     C_1   0.162056 0.504050 0.663254 0.236391
C49   C     C_1   0.161969 0.998039 0.161063 0.322668
C50   C     C_1   0.838105 0.001384 0.841064 0.294715
C51   C     C_1   0.661921 0.501640 0.160771 0.295464
C52   C     C_1   0.338098 0.501184 0.841206 0.294127
C53   C     C_1   0.124393 0.999233 0.123482 0.126584
C54   C     C_1   0.875655 0.000852 0.877176 0.120333
C55   C     C_1   0.624363 0.500800 0.124281 0.122737
C56   C     C_1   0.375650 0.500753 0.877250 0.121122
H5    H     H_    0.222804 0.954165 0.137729 0.207994
H6    H     H_    0.777425 0.953838 0.864005 0.203177
H7    H     H_    0.722283 0.455573 0.136607 0.199964
H8    H     H_    0.277229 0.453955 0.864031 0.209225
C57   C     C_R   0.064548 0.060880 0.249463 0.200636
C58   C     C_R   0.931491 0.048675 0.745776 0.187304
C59   C     C_R   0.567934 0.549925 0.253607 0.188807
C60   C     C_R   0.430948 0.549285 0.745088 0.187366
C61   C     C_R   0.079669 0.116746 0.285441 0.164605
C62   C     C_R   0.913040 0.102869 0.707603 0.169962
C63   C     C_R   0.585588 0.604579 0.290829 0.169198
C64   C     C_R   0.412440 0.603350 0.706582 0.170145
C65   C     C_R   0.073009 0.132149 0.339357 0.184052
C66   C     C_R   0.920574 0.122464 0.655842 0.184953
C67   C     C_R   0.577858 0.623916 0.342410 0.184851
C68   C     C_R   0.419903 0.622677 0.654630 0.185244
C69   C     C_R   0.051735 0.091449 0.357174 0.248412
C70   C     C_R   0.945406 0.086675 0.641102 0.247313
C71   C     C_R   0.553641 0.587427 0.357846 0.246806
C72   C     C_R   0.444796 0.586825 0.640103 0.247149
C73   C     C_R   0.027959 0.041050 0.308531 -0.072135
C74   C     C_R   0.970730 0.037333 0.690457 -0.073735
C75   C     C_R   0.528859 0.537677 0.309084 -0.074012
C76   C     C_R   0.470223 0.537735 0.689775 -0.071636
C77   C     C_R   0.031297 0.033059 0.248178 -0.090299
C78   C     C_R   0.967167 0.027263 0.750153 -0.093052
C79   C     C_R   0.532533 0.527760 0.249509 -0.093337
C80   C     C_R   0.466599 0.527759 0.749499 -0.091560
C81   C     C_R   0.001242 0.998766 0.314922 0.029650
C82   C     C_R   0.998981 0.997620 0.685254 0.032151
C83   C     C_R   0.501037 0.497477 0.314744 0.031357
C84   C     C_R   0.498675 0.498133 0.684934 0.030339
C85   C     C_R   0.975533 0.955671 0.255644 0.022603
C86   C     C_R   0.025754 0.955306 0.745202 0.025955
C87   C     C_R   0.474775 0.454648 0.255322 0.025413
C88   C     C_R   0.525502 0.456365 0.745215 0.022567
C89   C     C_R   0.969945 0.968011 0.187708 -0.064553
C90   C     C_R   0.031110 0.967310 0.813115 -0.062845
C91   C     C_R   0.469398 0.466425 0.187321 -0.063128
C92   C     C_R   0.531002 0.469200 0.812974 -0.061826
C93   C     C_R   0.000458 0.000514 0.185960 -0.021705
C94   C     C_R   0.999917 0.998993 0.814308 -0.016339
C95   C     C_R   0.500172 0.498836 0.185751 -0.016952
C96   C     C_R   0.499395 0.499638 0.813791 -0.019415
C97   C     C_R   0.955922 0.899713 0.257461 0.034645
C98   C     C_R   0.046852 0.900780 0.743916 0.034119
C99   C     C_R   0.454204 0.399819 0.257206 0.033264
C100  C     C_R   0.546102 0.401182 0.744400 0.038685
C101  C     C_R   0.935679 0.860948 0.194728 0.304138
C102  C     C_R   0.068912 0.862696 0.807308 0.294403
C103  C     C_R   0.432883 0.361049 0.194538 0.294916
C104  C     C_R   0.568218 0.364164 0.808629 0.298811
C105  C     C_R   0.922278 0.884306 0.125556 -0.039546
C106  C     C_R   0.080734 0.884942 0.876110 -0.024955
C107  C     C_R   0.421144 0.382726 0.125514 -0.023383
C108  C     C_R   0.582073 0.389016 0.877372 -0.044186
C109  C     C_R   0.935098 0.943444 0.122558 0.254803
C110  C     C_R   0.066444 0.943500 0.878556 0.262034
C111  C     C_R   0.434534 0.441637 0.122184 0.263851
C112  C     C_R   0.566815 0.446986 0.878676 0.255576
O17   O     O_R   0.500000 0.910000 0.552220 -0.574508
O18   O     O_R   0.500000 0.910000 0.447780 -0.574069
O19   O     O_R   0.000000 0.410000 0.552220 -0.574547
O20   O     O_R   1.000000 0.410000 0.447780 -0.572380
C113  C     C_R   0.499897 0.881915 0.499904 0.744402
C114  C     C_R   0.000040 0.381916 0.500089 0.744931
O21   O     O_R   0.439720 0.000200 0.491920 -0.570111
O22   O     O_R   0.560280 0.000200 0.508080 -0.569650
O23   O     O_R   0.939720 0.500200 0.491920 -0.569704
O24   O     O_R   0.060280 0.500200 0.508080 -0.569284
O25   O     O_R   0.439720 0.000170 0.387540 -0.550546
O26   O     O_R   0.560280 0.000170 0.612460 -0.550025
O27   O     O_R   0.939720 0.500170 0.387540 -0.550386
O28   O     O_R   0.060280 0.500170 0.612460 -0.550040
C115  C     C_R   0.420305 0.000332 0.420412 0.755316
C116  C     C_R   0.579731 0.000597 0.579641 0.755545
C117  C     C_R   0.920277 0.500553 0.420394 0.754722
C118  C     C_R   0.079729 0.500625 0.579630 0.755383
Cu5   Cu    Cu3+1 0.500000 0.000200 0.561810 1.064997
Cu6   Cu    Cu3+1 0.500000 0.000200 0.438190 1.064969
Cu7   Cu    Cu3+1 0.000000 0.500200 0.561810 1.065503
Cu8   Cu    Cu3+1 0.000000 0.500200 0.438190 1.067992
O29   O     O_R   0.500000 0.090400 0.552190 -0.568157
O30   O     O_R   0.500000 0.090400 0.447810 -0.567060
O31   O     O_R   1.000000 0.590400 0.552190 -0.567910
O32   O     O_R   0.000000 0.590400 0.447810 -0.567650
C119  C     C_R   0.499993 0.118482 0.499978 0.742979
C120  C     C_R   0.000041 0.618482 0.500013 0.742186
O33   O     O_R   0.965090 0.909820 0.465090 -0.568352
O34   O     O_R   0.034910 0.909820 0.534910 -0.569887
O35   O     O_R   0.465090 0.409820 0.465090 -0.569744
O36   O     O_R   0.534910 0.409820 0.534910 -0.568793
C121  C     C_R   0.000062 0.880833 0.500033 0.731779
C122  C     C_R   0.500043 0.380834 0.500285 0.732063
O37   O     O_R   0.965110 0.000030 0.374950 -0.567429
O38   O     O_R   0.034890 0.000030 0.625050 -0.568848
O39   O     O_R   0.465110 0.500030 0.374950 -0.568069
O40   O     O_R   0.534890 0.500030 0.625050 -0.566554
O41   O     O_R   0.034890 1.000000 0.444730 -0.503279
O42   O     O_R   0.965110 1.000000 0.555270 -0.505200
O43   O     O_R   0.534890 0.500000 0.444730 -0.504820
O44   O     O_R   0.465110 0.500000 0.555270 -0.505710
C123  C     C_R   0.000236 0.000798 0.381003 0.837938
C124  C     C_R   0.999801 0.000562 0.619027 0.838285
C125  C     C_R   0.500197 0.500465 0.380962 0.839548
C126  C     C_R   0.499748 0.500688 0.618962 0.837915
Cu9   Cu    Cu3+1 0.958680 0.000030 0.458700 1.196260
Cu10  Cu    Cu3+1 0.041320 0.000030 0.541300 1.197454
Cu11  Cu    Cu3+1 0.458680 0.500030 0.458700 1.197060
Cu12  Cu    Cu3+1 0.541320 0.500030 0.541300 1.196662
O45   O     O_R   0.965120 0.090230 0.465150 -0.523771
O46   O     O_R   0.034880 0.090230 0.534850 -0.520593
O47   O     O_R   0.465120 0.590230 0.465150 -0.521600
O48   O     O_R   0.534880 0.590230 0.534850 -0.521865
C127  C     C_R   0.999919 0.119291 0.500467 0.884305
C128  C     C_R   0.499932 0.619297 0.499877 0.881907
C129  C     C_R   0.436040 0.817719 0.376733 -0.190264
C130  C     C_R   0.564179 0.816847 0.622054 -0.183333
C131  C     C_R   0.935478 0.317545 0.378112 -0.183597
C132  C     C_R   0.064340 0.316915 0.622459 -0.182059
C133  C     C_R   0.409041 0.792033 0.308252 0.009352
C134  C     C_R   0.591812 0.790649 0.690139 0.004859
C135  C     C_R   0.907808 0.291608 0.310040 0.008061
C136  C     C_R   0.092005 0.290734 0.690555 0.004479
C137  C     C_R   0.909703 0.229147 0.301732 0.299291
C138  C     C_R   0.089902 0.228339 0.699050 0.299334
C139  C     C_R   0.410697 0.729480 0.300144 0.296984
C140  C     C_R   0.589612 0.728286 0.698624 0.300430
C141  C     C_R   0.940291 0.193076 0.361221 0.260135
C142  C     C_R   0.059268 0.192521 0.639631 0.260387
C143  C     C_R   0.440603 0.693118 0.360134 0.260222
C144  C     C_R   0.558978 0.692509 0.639145 0.260502
C145  C     C_R   0.969567 0.219588 0.433335 -0.043677
C146  C     C_R   0.029959 0.219325 0.567549 -0.044568
C147  C     C_R   0.469740 0.719580 0.432421 -0.043882
C148  C     C_R   0.529810 0.719297 0.566970 -0.046279
C149  C     C_R   0.468328 0.783901 0.436804 0.015356
C150  C     C_R   0.531403 0.783533 0.562506 0.017754
C151  C     C_R   0.968142 0.283863 0.437707 0.016640
C152  C     C_R   0.031567 0.283568 0.562960 0.018409
C153  C     C_R   0.999728 0.186612 0.500515 -0.016022
C154  C     C_R   0.499752 0.686591 0.499762 -0.021064
C155  C     C_R   0.499822 0.815019 0.499786 -0.050187
C156  C     C_R   0.999944 0.315027 0.500215 -0.049382
H9    H     H_    0.432108 0.865821 0.381495 0.166647
H10   H     H_    0.568174 0.864882 0.617044 0.165043
H11   H     H_    0.931696 0.365688 0.382988 0.164514
H12   H     H_    0.068272 0.364970 0.617434 0.164805
H13   H     H_    0.390843 0.182622 0.524381 0.189338
H14   H     H_    0.608864 0.182105 0.474822 0.192377
H15   H     H_    0.891355 0.682737 0.525547 0.191422
H16   H     H_    0.108361 0.681780 0.473298 0.192689
C157  C     C_R   0.561684 0.182661 0.496592 -0.139383
C158  C     C_R   0.438220 0.182976 0.503095 -0.134575
C159  C     C_R   0.061540 0.682549 0.495917 -0.139502
C160  C     C_R   0.938460 0.683056 0.503585 -0.137957
C161  C     C_R   0.587407 0.209304 0.479949 -0.214390
C162  C     C_R   0.412468 0.209683 0.519702 -0.215595
C163  C     C_R   0.087051 0.709074 0.478732 -0.211045
C164  C     C_R   0.912850 0.709793 0.520495 -0.215763
C165  C     C_R   0.085279 0.770637 0.468057 -0.075727
C166  C     C_R   0.914887 0.771262 0.531722 -0.079901
C167  C     C_R   0.585539 0.270850 0.469106 -0.079883
C168  C     C_R   0.414457 0.271152 0.530948 -0.076502
C169  C     C_R   0.058204 0.807572 0.474662 0.325675
C170  C     C_R   0.942398 0.807871 0.526115 0.332701
C171  C     C_R   0.558079 0.307628 0.474817 0.331358
C172  C     C_R   0.441997 0.307833 0.525506 0.330228
C173  C     C_R   0.029422 0.781167 0.490337 -0.067209
C174  C     C_R   0.971043 0.781296 0.510220 -0.066775
C175  C     C_R   0.529308 0.281172 0.490421 -0.067724
C176  C     C_R   0.470794 0.281285 0.509920 -0.066584
C177  C     C_R   0.530367 0.216485 0.496212 0.068636
C178  C     C_R   0.469646 0.216630 0.503819 0.068480
C179  C     C_R   0.030379 0.716451 0.495943 0.068767
C180  C     C_R   0.969835 0.716661 0.504077 0.068421
C181  C     C_R   0.000233 0.813913 0.500310 -0.183116
C182  C     C_R   0.500087 0.313911 0.500283 -0.183659
C183  C     C_R   0.499994 0.185309 0.499972 -0.097423
C184  C     C_R   0.000084 0.685311 0.499994 -0.096974
H17   H     H_    0.566608 0.134508 0.508636 0.157883
H18   H     H_    0.433237 0.134907 0.490789 0.156700
H19   H     H_    0.066492 0.634410 0.508020 0.158137
H20   H     H_    0.933399 0.635004 0.491223 0.157680
H21   H     H_    0.105879 0.790616 0.454977 0.206799
H22   H     H_    0.894369 0.791377 0.544959 0.205244
H23   H     H_    0.606152 0.290889 0.456093 0.205408
H24   H     H_    0.393792 0.291231 0.543867 0.204956
C185  C     C_3   0.297833 0.910506 0.379964 -0.304829
C186  C     C_3   0.301496 0.841175 0.394616 -0.502462
H25   H     H_    0.274910 0.815434 0.349908 0.301825
H26   H     H_    0.330249 0.822596 0.402119 0.254079
H27   H     H_    0.303648 0.832067 0.446304 0.250756
H28   H     H_    0.330587 0.925715 0.413425 0.228370
H29   H     H_    0.283451 0.931175 0.406306 0.262888
C187  C     C_3   0.704141 0.916629 0.620050 -0.316234
C188  C     C_3   0.713664 0.850937 0.609543 -0.555423
H30   H     H_    0.746283 0.846177 0.626437 0.285369
H31   H     H_    0.707382 0.817427 0.639876 0.295513
H32   H     H_    0.693446 0.839051 0.550328 0.244001
H33   H     H_    0.669778 0.919645 0.589915 0.228993
H34   H     H_    0.710925 0.944848 0.587335 0.283189
C189  C     C_3   0.796394 0.415331 0.380382 -0.316711
C190  C     C_3   0.786994 0.349411 0.390267 -0.554060
H35   H     H_    0.754458 0.344635 0.373766 0.285357
H36   H     H_    0.793089 0.316405 0.359246 0.295473
H37   H     H_    0.807423 0.336825 0.449302 0.244510
H38   H     H_    0.830736 0.418222 0.410178 0.228757
H39   H     H_    0.789826 0.442994 0.413752 0.283369
C191  C     C_3   0.204144 0.416490 0.620187 -0.315108
C192  C     C_3   0.213632 0.350736 0.609812 -0.554591
H40   H     H_    0.246258 0.345891 0.626770 0.284807
H41   H     H_    0.207301 0.317323 0.640167 0.295777
H42   H     H_    0.193430 0.338789 0.550613 0.244730
H43   H     H_    0.169780 0.419580 0.589968 0.229402
H44   H     H_    0.210985 0.444608 0.587477 0.283212
N1    N     N_R   0.204870 0.878729 0.201625 0.183568
O49   O     O_R   0.175535 0.884794 0.132190 -0.360749
O50   O     O_R   0.212772 0.823689 0.228360 -0.236884
N2    N     N_R   0.794710 0.883616 0.795578 0.178916
O51   O     O_R   0.824382 0.886395 0.865172 -0.359847
O52   O     O_R   0.786244 0.830184 0.764667 -0.258136
N3    N     N_R   0.705550 0.383891 0.204987 0.179370
O53   O     O_R   0.675801 0.387280 0.135477 -0.367375
O54   O     O_R   0.714127 0.330155 0.235407 -0.256989
N4    N     N_R   0.294587 0.383437 0.795886 0.180938
O55   O     O_R   0.324039 0.386176 0.865622 -0.342736
O56   O     O_R   0.286155 0.329998 0.765000 -0.255432
N5    N     N_R   0.291249 0.887290 0.265539 0.159710
O57   O     O_R   0.267936 0.863004 0.200686 -0.254682
O58   O     O_R   0.330880 0.875179 0.302349 -0.397539
N6    N     N_R   0.709736 0.890307 0.732026 0.151732
O59   O     O_R   0.732510 0.865735 0.796974 -0.270801
O60   O     O_R   0.670627 0.874868 0.692347 -0.393470
N7    N     N_R   0.790366 0.390653 0.267700 0.152238
O61   O     O_R   0.767463 0.366877 0.202446 -0.273841
O62   O     O_R   0.829482 0.374988 0.306906 -0.394151
N8    N     N_R   0.209586 0.390411 0.732084 0.150187
O63   O     O_R   0.232284 0.365876 0.797061 -0.257810
O64   O     O_R   0.170463 0.375053 0.692322 -0.393808
N9    N     N_R   0.286776 0.075442 0.196887 0.131623
O65   O     O_R   0.259761 0.113902 0.148375 -0.216117
O66   O     O_R   0.325845 0.088939 0.228089 -0.300923
N10   N     N_R   0.712009 0.073754 0.809111 0.131689
O67   O     O_R   0.737798 0.109117 0.863301 -0.211280
O68   O     O_R   0.672665 0.087006 0.775064 -0.307422
N11   N     N_R   0.787689 0.575204 0.192707 0.131359
O69   O     O_R   0.761755 0.611360 0.139379 -0.212295
O70   O     O_R   0.827014 0.588226 0.226477 -0.308273
N12   N     N_R   0.211978 0.574077 0.808799 0.132386
O71   O     O_R   0.237717 0.609302 0.863203 -0.206142
O72   O     O_R   0.172645 0.587573 0.774310 -0.304861
C193  C     C_3   0.898911 0.843798 0.057948 -0.329510
C194  C     C_3   0.852905 0.836865 0.029002 -0.513354
H45   H     H_    0.837373 0.881770 0.018376 0.288170
H46   H     H_    0.836764 0.810669 0.976906 0.271072
H47   H     H_    0.849181 0.811767 0.068540 0.264672
H48   H     H_    0.901658 0.861339 0.013527 0.248534
H49   H     H_    0.913580 0.797936 0.070942 0.233673
C195  C     C_3   0.105851 0.844524 0.944277 -0.268149
C196  C     C_3   0.082201 0.832239 0.979503 -0.672065
H50   H     H_    0.076094 0.875322 0.997507 0.274857
H51   H     H_    0.052124 0.809517 0.939617 0.247075
H52   H     H_    0.100972 0.802203 0.028180 0.277025
H53   H     H_    0.112818 0.799148 0.931865 0.258360
H54   H     H_    0.136937 0.863847 0.984492 0.286427
C197  C     C_3   0.397082 0.341463 0.058111 -0.270663
C198  C     C_3   0.421347 0.329962 0.023842 -0.674866
H55   H     H_    0.426981 0.373233 0.005417 0.277046
H56   H     H_    0.451696 0.308024 0.064464 0.247515
H57   H     H_    0.403264 0.299486 0.975563 0.273917
H58   H     H_    0.390867 0.295871 0.071305 0.257721
H59   H     H_    0.365707 0.359725 0.017054 0.285176
C199  C     C_3   0.608643 0.350655 0.946455 -0.316621
C200  C     C_3   0.654773 0.351143 0.974485 -0.503671
H60   H     H_    0.667673 0.397917 0.987170 0.287962
H61   H     H_    0.672771 0.323211 0.025244 0.271872
H62   H     H_    0.659611 0.331733 0.933468 0.261144
H63   H     H_    0.604912 0.365708 0.990553 0.250496
H64   H     H_    0.597474 0.302793 0.935666 0.236037
N13   N     N_R   0.088339 0.026517 0.229301 0.120338
O73   O     O_R   0.084534 0.967485 0.223422 -0.318524
O74   O     O_R   0.121602 0.050230 0.238630 -0.287624
N14   N     N_R   0.908959 0.008966 0.764162 0.120158
O75   O     O_R   0.919314 0.951722 0.778509 -0.308695
O76   O     O_R   0.871656 0.024000 0.744549 -0.296956
N15   N     N_R   0.591130 0.510605 0.236220 0.119483
O77   O     O_R   0.581242 0.453287 0.221945 -0.311793
O78   O     O_R   0.628485 0.526080 0.256700 -0.296880
N16   N     N_R   0.408508 0.509813 0.763898 0.119924
O79   O     O_R   0.418812 0.452560 0.778354 -0.309057
O80   O     O_R   0.371279 0.525009 0.744550 -0.297297
N17   N     N_R   0.102821 0.156495 0.269044 0.211747
O81   O     O_R   0.137100 0.181930 0.321527 -0.199897
O82   O     O_R   0.089670 0.167045 0.201050 -0.248816
N18   N     N_R   0.886549 0.137307 0.721109 0.205533
O83   O     O_R   0.851248 0.159223 0.666915 -0.199044
O84   O     O_R   0.897710 0.146322 0.788282 -0.257205
N19   N     N_R   0.611571 0.639610 0.276703 0.205789
O85   O     O_R   0.646324 0.662991 0.330455 -0.198910
O86   O     O_R   0.600484 0.647767 0.209414 -0.257362
N20   N     N_R   0.385995 0.637992 0.720014 0.206017
O87   O     O_R   0.350594 0.659597 0.665766 -0.197484
O88   O     O_R   0.397339 0.647597 0.787192 -0.256225
N21   N     N_R   0.089516 0.188328 0.378786 0.202455
O89   O     O_R   0.076685 0.240038 0.343875 -0.267453
O90   O     O_R   0.119731 0.187831 0.448100 -0.229644
N22   N     N_R   0.902068 0.178251 0.616432 0.201063
O91   O     O_R   0.910877 0.229423 0.652021 -0.263751
O92   O     O_R   0.873695 0.177396 0.546144 -0.228115
N23   N     N_R   0.595634 0.680056 0.381078 0.201282
O93   O     O_R   0.585948 0.731119 0.344855 -0.264874
O94   O     O_R   0.624144 0.679732 0.451317 -0.227793
N24   N     N_R   0.401279 0.678284 0.614845 0.200267
O95   O     O_R   0.409979 0.729625 0.650082 -0.264582
O96   O     O_R   0.372961 0.677121 0.544540 -0.231581
N25   N     N_R   0.054605 0.105361 0.423117 0.136559
O97   O     O_R   0.087675 0.086248 0.484413 -0.251726
O98   O     O_R   0.038241 0.156417 0.424904 -0.350033
N26   N     N_R   0.945157 0.105161 0.578669 0.133626
O99   O     O_R   0.913383 0.088462 0.514486 -0.254370
O100  O     O_R   0.962347 0.157055 0.582523 -0.346618
N27   N     N_R   0.554097 0.605405 0.420584 0.134214
O101  O     O_R   0.586170 0.588690 0.484566 -0.254192
O102  O     O_R   0.536656 0.657076 0.416987 -0.347136
N28   N     N_R   0.444483 0.604963 0.577500 0.135162
O103  O     O_R   0.412783 0.587824 0.513463 -0.253080
O104  O     O_R   0.461558 0.656848 0.580876 -0.346031
C201  C     C_3   0.956536 0.874896 0.321928 -0.341152
C202  C     C_3   0.913508 0.880474 0.309202 -0.616582
H65   H     H_    0.906488 0.928398 0.314311 0.270275
H66   H     H_    0.888340 0.864675 0.253748 0.265263
H67   H     H_    0.912381 0.852086 0.349807 0.243234
H68   H     H_    0.966143 0.826260 0.331657 0.236259
H69   H     H_    0.980353 0.895966 0.372694 0.196395
C203  C     C_3   0.045820 0.876320 0.678855 -0.344390
C204  C     C_3   0.088330 0.882984 0.689620 -0.602090
H70   H     H_    0.094463 0.930977 0.683042 0.271355
H71   H     H_    0.114243 0.868070 0.744925 0.269555
H72   H     H_    0.089343 0.854307 0.649138 0.242007
H73   H     H_    0.036901 0.827499 0.669873 0.234990
H74   H     H_    0.021122 0.896437 0.628109 0.197794
C205  C     C_3   0.454905 0.375953 0.322159 -0.345241
C206  C     C_3   0.412125 0.382734 0.310325 -0.602064
H75   H     H_    0.405588 0.430875 0.315588 0.270959
H76   H     H_    0.386570 0.367115 0.255165 0.269876
H77   H     H_    0.410968 0.354664 0.351105 0.242363
H78   H     H_    0.464086 0.327187 0.332134 0.234939
H79   H     H_    0.479332 0.396454 0.372666 0.197534
C207  C     C_3   0.544437 0.375032 0.679405 -0.341263
C208  C     C_3   0.586986 0.379368 0.690102 -0.626896
H80   H     H_    0.594160 0.427122 0.684684 0.271608
H81   H     H_    0.612495 0.362845 0.744989 0.265256
H82   H     H_    0.587163 0.350801 0.648696 0.243409
H83   H     H_    0.534718 0.326542 0.671017 0.238505
H84   H     H_    0.520372 0.395862 0.628461 0.197560
N29   N     N_R   0.931071 0.796936 0.202430 0.114831
O105  O     O_R   0.961971 0.760169 0.222180 -0.310894
O106  O     O_R   0.897687 0.775903 0.195175 -0.335495
N30   N     N_R   0.079769 0.801300 0.801294 0.106999
O107  O     O_R   0.051719 0.758720 0.775875 -0.312545
O108  O     O_R   0.118139 0.786893 0.826917 -0.312376
N31   N     N_R   0.422493 0.299645 0.201428 0.106814
O109  O     O_R   0.450995 0.257476 0.228366 -0.313891
O110  O     O_R   0.384151 0.284786 0.175185 -0.311612
N32   N     N_R   0.574188 0.300233 0.802820 0.115084
O111  O     O_R   0.543187 0.262882 0.779106 -0.309858
O112  O     O_R   0.609800 0.279299 0.819360 -0.332101
N33   N     N_R   0.209997 0.925727 0.302803 0.114230
O113  O     O_R   0.219681 0.877049 0.343131 -0.279952
O114  O     O_R   0.176403 0.953160 0.287902 -0.271164
N34   N     N_R   0.792654 0.937391 0.700689 0.109335
O115  O     O_R   0.826462 0.906600 0.722648 -0.215966
O116  O     O_R   0.777398 0.969252 0.641046 -0.316024
N35   N     N_R   0.707774 0.436407 0.300600 0.109080
O117  O     O_R   0.673642 0.406450 0.277905 -0.216599
O118  O     O_R   0.723371 0.467110 0.361010 -0.316620
N36   N     N_R   0.292705 0.437048 0.701059 0.109383
O119  O     O_R   0.326593 0.406366 0.723311 -0.218301
O120  O     O_R   0.277504 0.468800 0.641355 -0.315090
N37   N     N_R   0.910746 0.981669 0.058357 0.108856
O121  O     O_R   0.875458 0.962473 0.002214 -0.357110
O122  O     O_R   0.917499 0.040140 0.063598 -0.292936
N38   N     N_R   0.090041 0.982358 0.942183 0.105038
O123  O     O_R   0.125600 0.964284 0.998787 -0.351060
O124  O     O_R   0.082332 0.040622 0.935887 -0.293011
N39   N     N_R   0.410473 0.479748 0.057788 0.106314
O125  O     O_R   0.417168 0.538236 0.063096 -0.294625
O126  O     O_R   0.375384 0.460529 0.001211 -0.349149
N40   N     N_R   0.589442 0.486768 0.941529 0.110642
O127  O     O_R   0.624439 0.469293 0.999790 -0.368320
O128  O     O_R   0.581388 0.544953 0.933657 -0.284683
C209  C     C_3   0.621283 0.831193 0.754472 -0.271053
C210  C     C_3   0.607475 0.839187 0.806670 -0.660895
H85   H     H_    0.575153 0.857174 0.776343 0.249620
H86   H     H_    0.608973 0.795430 0.833245 0.285448
H87   H     H_    0.628358 0.872179 0.850374 0.281842
H88   H     H_    0.653551 0.813197 0.784623 0.289150
H89   H     H_    0.621760 0.877104 0.734271 0.263411
C211  C     C_3   0.380990 0.833201 0.243195 -0.269485
C212  C     C_3   0.396393 0.839384 0.193138 -0.666342
H90   H     H_    0.429004 0.856072 0.224971 0.250214
H91   H     H_    0.394792 0.795226 0.167280 0.286970
H92   H     H_    0.376555 0.872726 0.148804 0.279665
H93   H     H_    0.348444 0.816440 0.211468 0.291503
H94   H     H_    0.380691 0.879640 0.262501 0.261523
C213  C     C_3   0.121427 0.331312 0.754895 -0.270660
C214  C     C_3   0.107637 0.339102 0.807142 -0.657143
H95   H     H_    0.075290 0.356983 0.776863 0.248832
H96   H     H_    0.109209 0.295288 0.833681 0.285635
H97   H     H_    0.128482 0.372104 0.850869 0.282969
H98   H     H_    0.153723 0.313429 0.785005 0.290897
H99   H     H_    0.121825 0.377278 0.734727 0.263115
C215  C     C_3   0.878821 0.332515 0.245442 -0.270547
C216  C     C_3   0.893065 0.339656 0.193775 -0.663635
H100  H     H_    0.925524 0.356909 0.224462 0.251015
H101  H     H_    0.891396 0.295731 0.167440 0.285783
H102  H     H_    0.872556 0.372916 0.149860 0.280667
H103  H     H_    0.846421 0.315228 0.214907 0.289732
H104  H     H_    0.878563 0.378625 0.265377 0.262896
N41   N     N_R   0.880259 0.201448 0.231944 0.154222
O129  O     O_R   0.841090 0.199150 0.207759 -0.258281
O130  O     O_R   0.892554 0.177399 0.193186 -0.233028
N42   N     N_R   0.119335 0.200375 0.768837 0.154708
O131  O     O_R   0.158443 0.197290 0.792721 -0.252295
O132  O     O_R   0.107052 0.176684 0.807779 -0.231160
N43   N     N_R   0.381417 0.701871 0.230206 0.155191
O133  O     O_R   0.342104 0.700334 0.205145 -0.250661
O134  O     O_R   0.393962 0.677358 0.192051 -0.231931
N44   N     N_R   0.618919 0.700321 0.768482 0.154168
O135  O     O_R   0.658050 0.697047 0.792557 -0.258729
O136  O     O_R   0.606495 0.676808 0.807293 -0.232369
N45   N     N_R   0.942361 0.131637 0.342293 0.130385
O137  O     O_R   0.910926 0.096193 0.323034 -0.262704
O138  O     O_R   0.963196 0.121307 0.313501 -0.342512
N46   N     N_R   0.057595 0.130795 0.658334 0.128316
O139  O     O_R   0.089123 0.095652 0.676796 -0.263042
O140  O     O_R   0.037267 0.119757 0.687932 -0.334947
N47   N     N_R   0.441728 0.631102 0.341803 0.130699
O141  O     O_R   0.409969 0.596861 0.323786 -0.262298
O142  O     O_R   0.461890 0.618890 0.312159 -0.335348
N48   N     N_R   0.557084 0.630911 0.657935 0.128661
O143  O     O_R   0.588632 0.595601 0.676985 -0.264130
O144  O     O_R   0.536496 0.620265 0.687131 -0.335804
N49   N     N_R   0.061373 0.870328 0.461599 0.093605
O145  O     O_R   0.093097 0.900053 0.514799 -0.294813
O146  O     O_R   0.049100 0.885161 0.395096 -0.391176
N50   N     N_R   0.940249 0.870337 0.541459 0.090133
O147  O     O_R   0.908556 0.901492 0.489902 -0.295171
O148  O     O_R   0.953382 0.883431 0.608778 -0.396306
N51   N     N_R   0.560428 0.370161 0.459910 0.091457
O149  O     O_R   0.592095 0.400887 0.511805 -0.295834
O150  O     O_R   0.547459 0.383740 0.392746 -0.395254
N52   N     N_R   0.439510 0.370388 0.540198 0.090865
O151  O     O_R   0.407893 0.401249 0.488022 -0.295204
O152  O     O_R   0.452198 0.383914 0.607204 -0.392733
N53   N     N_R   0.203769 0.108499 0.234279 0.138690
O153  O     O_R   0.183986 0.134757 0.259101 -0.206501
O154  O     O_R   0.206383 0.137378 0.185570 -0.245782
N54   N     N_R   0.795454 0.115799 0.780404 0.133243
O155  O     O_R   0.817311 0.145718 0.762312 -0.215346
O156  O     O_R   0.789937 0.140411 0.827884 -0.249473
N55   N     N_R   0.704387 0.615830 0.223067 0.134758
O157  O     O_R   0.682353 0.644747 0.241557 -0.213455
O158  O     O_R   0.709996 0.641832 0.176339 -0.249632
N56   N     N_R   0.295533 0.615587 0.780504 0.132854
O159  O     O_R   0.317389 0.645540 0.762441 -0.214380
O160  O     O_R   0.290015 0.640138 0.828012 -0.247776
N57   N     N_R   0.286696 0.040306 0.396220 0.105320
O161  O     O_R   0.325162 0.027028 0.447447 -0.382126
O162  O     O_R   0.264275 0.061891 0.418396 -0.274482
N58   N     N_R   0.714555 0.052550 0.611021 0.131000
O163  O     O_R   0.676683 0.037584 0.558665 -0.387306
O164  O     O_R   0.736097 0.080846 0.590923 -0.249633
N59   N     N_R   0.785816 0.550943 0.391182 0.131159
O165  O     O_R   0.823782 0.535689 0.443095 -0.386371
O166  O     O_R   0.764373 0.578615 0.411951 -0.250536
N60   N     N_R   0.214689 0.552289 0.610995 0.130971
O167  O     O_R   0.176792 0.537450 0.558617 -0.386185
O168  O     O_R   0.236311 0.580373 0.590924 -0.247632
C217  C     C_3   0.289064 0.120689 0.323351 -0.212494
C218  C     C_3   0.335421 0.135727 0.374378 -0.764709
H105  H     H_    0.349068 0.118858 0.430621 0.279070
H106  H     H_    0.353610 0.118667 0.353546 0.265405
H107  H     H_    0.338970 0.186071 0.377570 0.247547
H108  H     H_    0.278216 0.141342 0.270274 0.263416
H109  H     H_    0.273888 0.149177 0.343796 0.245690
C219  C     C_3   0.709997 0.127128 0.686673 -0.227460
C220  C     C_3   0.663631 0.141566 0.633430 -0.757400
H110  H     H_    0.651951 0.128108 0.576878 0.277977
H111  H     H_    0.644369 0.120668 0.650093 0.264085
H112  H     H_    0.659128 0.191615 0.633031 0.247903
H113  H     H_    0.719115 0.145052 0.740019 0.264613
H114  H     H_    0.725882 0.158534 0.670237 0.244840
C221  C     C_3   0.789967 0.626730 0.316148 -0.227074
C222  C     C_3   0.836330 0.640909 0.369260 -0.758737
H115  H     H_    0.848219 0.626781 0.425759 0.278582
H116  H     H_    0.855491 0.620524 0.352050 0.263917
H117  H     H_    0.840706 0.691002 0.370123 0.247792
H118  H     H_    0.780764 0.645327 0.262997 0.264881
H119  H     H_    0.774121 0.657715 0.333115 0.244781
C223  C     C_3   0.210158 0.627146 0.686405 -0.226857
C224  C     C_3   0.163852 0.641794 0.632771 -0.752004
H120  H     H_    0.152455 0.628868 0.576172 0.277666
H121  H     H_    0.144345 0.620622 0.648744 0.262872
H122  H     H_    0.159392 0.691818 0.632819 0.248662
H123  H     H_    0.219174 0.645144 0.739669 0.265138
H124  H     H_    0.226218 0.658409 0.670190 0.245470
N61   N     N_R   0.202363 0.036373 0.089511 0.234198
O169  O     O_R   0.209889 0.028264 0.039448 -0.180414
O170  O     O_R   0.171005 0.070901 0.072969 -0.200209
N62   N     N_R   0.797335 0.034627 0.915577 0.234626
O171  O     O_R   0.789922 0.023369 0.965267 -0.197965
O172  O     O_R   0.829489 0.068065 0.934583 -0.195625
N63   N     N_R   0.702342 0.537166 0.086500 0.233164
O173  O     O_R   0.709371 0.526716 0.036181 -0.204620
O174  O     O_R   0.670578 0.571234 0.068784 -0.193569
N64   N     N_R   0.297261 0.534720 0.915592 0.236863
O175  O     O_R   0.289674 0.523734 0.965115 -0.182576
O176  O     O_R   0.329634 0.567720 0.934862 -0.196529
N65   N     N_R   0.295470 0.971729 0.180879 0.176066
O177  O     O_R   0.274216 0.949067 0.114801 -0.243981
O178  O     O_R   0.335752 0.971051 0.215241 -0.312278
N66   N     N_R   0.704145 0.969118 0.819636 0.175941
O179  O     O_R   0.725079 0.945526 0.885355 -0.259755
O180  O     O_R   0.663827 0.967906 0.784231 -0.319164
N67   N     N_R   0.795459 0.470796 0.180597 0.176601
O181  O     O_R   0.774363 0.448204 0.114477 -0.264617
O182  O     O_R   0.835761 0.469233 0.215730 -0.318399
N68   N     N_R   0.203948 0.469520 0.819464 0.174849
O183  O     O_R   0.224806 0.445921 0.885177 -0.244497
O184  O     O_R   0.163624 0.468514 0.784023 -0.319168

loop_
_geom_bond_atom_site_label_1
_geom_bond_atom_site_label_2
_geom_bond_distance
_ccdc_geom_bond_type
O48   C128  1.290408 A    
C105  C109  1.405296 A    
C59   C63   1.397145 A    
O28   Cu7   1.947885 S    
C71   C75   1.453939 A    
C216  H100  1.111100 S    
C14   H2    1.095720 S    
C108  C112  1.409695 A    
C25   C49   1.488868 S    
C211  C212  1.527110 S    
C145  C151  1.416741 A    
C176  C182  1.458337 A    
N3    O54   1.302386 A    
N29   O105  1.300576 A    
N2    O51   1.301753 A    
C107  C111  1.411204 A    
C135  C137  1.390070 A    
C165  C169  1.398064 A    
N14   O75   1.301628 A    
C157  H17   1.079368 S    
C190  H35   1.107131 S    
N27   O102  1.299334 A    
C167  H23   1.084330 S    
O28   C118  1.306737 A    
C31   C35   1.654832 S    
N25   O98   1.298836 A    
C60   C80   1.413720 A    
C15   N55   1.479951 S    
N43   O134  1.300997 A    
C36   C48   1.488674 S    
C215  H104  1.105369 S    
C72   C76   1.453413 A    
C219  C220  1.531059 S    
O22   Cu6   1.950048 S    
C157  C161  1.374104 A    
C12   C28   1.612532 S    
C9    N1    1.492928 S    
C141  N45   1.426729 S    
O26   C116  1.306573 A    
N18   O84   1.301269 A    
N50   O147  1.302705 A    
N33   O114  1.300059 A    
C64   N20   1.435610 S    
C172  C176  1.462632 A    
C1    C93   1.475497 S    
C223  C224  1.531212 S    
C98   C203  1.509073 S    
O4    C4    1.303723 A    
O21   C115  1.308321 A    
O17   C113  1.304557 A    
O11   C7    1.307651 A    
N5    O58   1.301745 A    
C102  N30   1.439318 S    
C31   C189  1.592823 S    
C130  C150  1.414938 A    
C119  C183  1.466267 S    
C80   C96   1.405841 A    
O38   Cu10  1.994661 S    
C190  H37   1.110916 S    
C12   N36   1.500069 S    
C83   C125  1.477645 S    
N12   O71   1.299630 A    
C21   C45   1.209053 T    
O46   C127  1.290707 A    
C195  C196  1.523144 S    
C6    C54   1.434926 S    
C58   C62   1.397355 A    
C127  C153  1.477087 S    
N64   O175  1.301655 A    
C34   C46   1.488730 S    
C220  H112  1.110997 S    
O41   Cu10  1.995942 S    
O16   Cu4   1.949357 S    
O36   Cu12  1.990466 S    
N61   O169  1.301530 A    
C24   C118  1.437509 S    
N63   O173  1.301677 A    
C141  C145  1.457945 A    
O7    Cu4   1.996223 S    
C201  H69   1.076289 S    
O15   C7    1.301740 A    
C121  C181  1.468296 S    
O42   Cu9   1.995941 S    
C211  H94   1.106865 S    
C42   H6    1.098359 S    
O43   Cu12  1.995942 S    
N16   O80   1.300492 A    
N3    O53   1.301556 A    
C140  C144  1.414114 A    
N66   O180  1.300123 A    
C218  H105  1.100678 S    
O9    C5    1.303520 A    
C16   N56   1.479832 S    
C23   C47   1.209838 T    
C20   C223  1.592380 S    
C101  C105  1.399530 A    
N62   O172  1.300017 A    
N39   O126  1.296740 A    
C173  C179  1.423815 A    
N68   O184  1.300162 A    
C97   C101  1.425389 A    
C15   C27   1.580521 S    
C132  C152  1.414821 A    
C165  H21   1.084321 S    
C16   H4    1.095850 S    
C59   N15   1.445511 S    
C142  N46   1.427342 S    
C219  H114  1.112939 S    
N42   O131  1.300785 A    
O37   C123  1.294937 A    
C209  H88   1.109660 S    
O38   C124  1.293729 A    
N60   O167  1.302773 A    
N32   O112  1.300062 A    
C189  H38   1.109721 S    
C194  H45   1.108581 S    
C35   C39   1.637220 S    
O3    Cu2   1.996353 S    
C10   N34   1.500147 S    
C61   N17   1.437757 S    
N46   O139  1.303006 A    
C2    C94   1.476773 S    
C224  H122  1.111019 S    
C26   C42   1.591222 S    
C33   C37   1.630339 S    
C113  C155  1.467774 S    
C91   C95   1.409209 A    
C42   N62   1.480400 S    
C172  N52   1.425930 S    
C112  N40   1.444208 S    
C36   C40   1.637511 S    
C203  C204  1.538540 S    
O37   Cu9   1.994662 S    
C209  C210  1.527060 S    
C107  C197  1.529801 S    
N57   O162  1.303468 A    
C146  C152  1.417076 A    
C222  H115  1.099635 S    
C194  H47   1.105718 S    
C10   N2    1.493967 S    
C210  H85   1.111091 S    
C187  H34   1.088365 S    
C178  C183  1.407236 A    
C57   N13   1.442197 S    
N31   O109  1.300885 A    
C214  H95   1.111094 S    
C97   C201  1.507091 S    
C67   C71   1.415317 A    
C198  H57   1.110520 S    
C99   C103  1.425494 A    
C22   C46   1.210186 T    
O3    C3    1.301426 A    
N24   O95   1.301000 A    
N38   O123  1.296613 A    
O40   C126  1.295118 A    
N49   O146  1.300061 A    
C37   C41   1.596476 S    
N11   O69   1.299680 A    
C59   C79   1.414080 A    
C30   C187  1.592682 S    
N9    O65   1.300074 A    
N35   O118  1.298454 A    
C49   C53   1.207947 T    
N52   O151  1.302717 A    
C75   C79   1.413552 A    
C111  N39   1.445186 S    
C201  C202  1.536919 S    
C90   C110  1.416467 A    
C13   C25   1.581687 S    
O19   Cu7   1.990482 S    
C17   C33   1.631529 S    
C130  H10   1.080070 S    
N21   O90   1.301002 A    
C149  C155  1.407996 A    
C43   H7    1.098641 S    
C20   C36   1.633720 S    
C188  H30   1.107080 S    
N67   O181  1.302700 A    
C67   N23   1.435998 S    
N16   O79   1.301641 A    
C150  C155  1.407351 A    
C208  H81   1.107073 S    
C66   C70   1.415340 A    
C9    C25   1.624113 S    
N37   O121  1.297108 A    
C20   N60   1.486985 S    
C10   C30   1.648351 S    
C69   N25   1.425269 S    
N8    O63   1.300977 A    
C140  N44   1.437265 S    
C185  H28   1.105265 S    
C191  H44   1.088377 S    
C40   C44   1.604832 S    
C192  H41   1.108558 S    
C148  C150  1.416609 A    
N56   O159  1.300857 A    
C26   C50   1.486285 S    
C175  C182  1.458599 A    
O44   C126  1.286929 A    
C86   C98   1.458644 A    
C199  H64   1.110611 S    
C193  H49   1.110808 S    
C64   C68   1.394245 A    
C186  H26   1.110414 S    
C114  C156  1.467646 S    
N6    O59   1.301036 A    
C90   C94   1.409508 A    
C198  H55   1.101632 S    
N8    O64   1.302683 A    
C151  C156  1.407248 A    
O5    Cu3   1.996223 S    
C202  H66   1.107351 S    
O17   Cu5   1.990482 S    
C208  H80   1.108042 S    
N14   O76   1.300505 A    
N22   O91   1.300996 A    
C130  C134  1.384603 A    
C92   C112  1.414259 A    
C203  H74   1.075372 S    
C15   H3    1.095702 S    
C158  C178  1.420433 A    
C16   C28   1.580467 S    
C104  C108  1.401122 A    
C136  C213  1.513376 S    
C40   N68   1.488570 S    
O26   Cu5   1.947885 S    
C18   C34   1.633761 S    
N41   O129  1.300787 A    
C139  C143  1.414628 A    
N1    O50   1.301383 A    
C152  C156  1.407842 A    
C58   C78   1.414174 A    
C24   C48   1.210162 T    
C204  H71   1.106061 S    
O36   C122  1.289791 A    
C13   N53   1.479061 S    
C196  H51   1.110981 S    
C60   N16   1.445453 S    
C41   N61   1.481669 S    
N36   O119  1.303491 A    
C38   C42   1.604623 S    
O13   Cu3   1.948392 S    
C222  H117  1.110963 S    
C131  C151  1.414906 A    
N26   O100  1.299407 A    
C99   C205  1.507977 S    
N11   O70   1.301565 A    
C108  C199  1.522225 S    
N40   O127  1.295460 A    
N10   O67   1.299643 A    
C27   C43   1.590824 S    
O45   C127  1.288837 A    
C217  H109  1.113020 S    
C100  C207  1.509127 S    
C214  H97   1.110511 S    
C88   C92   1.411389 A    
H15   C164  1.080842 S    
N45   O138  1.298129 A    
O5    C1    1.301561 A    
C14   N54   1.479929 S    
C17   C217  1.589790 S    
C138  C142  1.413998 A    
C218  H106  1.101741 S    
N55   O157  1.300760 A    
C132  C136  1.384815 A    
O47   C128  1.289140 A    
C78   C94   1.405174 A    
C212  H90   1.111102 S    
C163  C165  1.365842 A    
C109  N37   1.445118 S    
O15   Cu4   1.948392 S    
C202  H65   1.107517 S    
C85   C89   1.410953 A    
C206  H75   1.107314 S    
C200  H61   1.110074 S    
C137  N41   1.437334 S    
C223  H124  1.112932 S    
C195  H53   1.105420 S    
C65   C69   1.414463 A    
C84   C88   1.458586 A    
C23   C117  1.436985 S    
N23   O94   1.300845 A    
C200  H60   1.107721 S    
C169  C173  1.463231 A    
C221  H118  1.091592 S    
C159  H19   1.079319 S    
C174  C180  1.423053 A    
O14   C6    1.302737 A    
C128  C154  1.476498 S    
C52   C56   1.207239 T    
C11   C27   1.612981 S    
N62   O171  1.301658 A    
C28   C52   1.486408 S    
C122  C182  1.468361 S    
C11   N3    1.493685 S    
C171  C175  1.462247 A    
N53   O154  1.297224 A    
C22   C116  1.437583 S    
C87   C91   1.413676 A    
O25   C115  1.306331 A    
Cu10  O46   1.989403 S    
O10   C6    1.306511 A    
N41   O130  1.301062 A    
N65   O177  1.302616 A    
C159  C179  1.420503 A    
N25   O97   1.302324 A    
C131  H11   1.079992 S    
C180  C184  1.406940 A    
C216  H102  1.110510 S    
C166  H22   1.084336 S    
C61   C65   1.391162 A    
C30   N6    1.502149 S    
N48   O143  1.303020 A    
C63   C67   1.393993 A    
C221  C222  1.530951 S    
Cu11  O47   1.990349 S    
C158  H18   1.079487 S    
C187  C188  1.537264 S    
O8    Cu4   1.996572 S    
N38   O124  1.301971 A    
N33   O113  1.300797 A    
C188  H32   1.110907 S    
O34   Cu10  1.990466 S    
C213  C214  1.527058 S    
O33   C121  1.290193 A    
H14   C161  1.081011 S    
C72   N28   1.427461 S    
C29   N5    1.496322 S    
C207  H83   1.109851 S    
C66   N22   1.436068 S    
C34   C38   1.637621 S    
O19   C114  1.303684 A    
C43   N63   1.480212 S    
N20   O87   1.301378 A    
C44   N64   1.480542 S    
C179  C184  1.407435 A    
C138  N42   1.437231 S    
C186  H27   1.110841 S    
C79   C95   1.404794 A    
C204  H72   1.109847 S    
Cu7   Cu8   2.721083 S    
N19   O85   1.301383 A    
O32   C120  1.303511 A    
C102  C106  1.400925 A    
N13   O74   1.299002 A    
C12   N4    1.494259 S    
C166  C170  1.397843 A    
N12   O72   1.301582 A    
C193  C194  1.531593 S    
Cu6   O30   1.990553 S    
N54   O155  1.300908 A    
N17   O82   1.301518 A    
C30   C34   1.655081 S    
O40   Cu12  1.994661 S    
N64   O176  1.300032 A    
C220  H111  1.102004 S    
C98   C102  1.425292 A    
C73   C81   1.457789 A    
C104  N32   1.438925 S    
C132  H12   1.080075 S    
C212  H92   1.110503 S    
O39   C125  1.293806 A    
N30   O107  1.300865 A    
C75   C83   1.454790 A    
C191  C192  1.537251 S    
C158  C162  1.374152 A    
C201  H68   1.110204 S    
C101  N29   1.438009 S    
C40   N12   1.485217 S    
Cu8   O32   1.990553 S    
C145  C153  1.459901 A    
C206  H77   1.109782 S    
C58   N14   1.445535 S    
N15   O77   1.301644 A    
C37   N65   1.491507 S    
C38   N66   1.488469 S    
H16   C163  1.081094 S    
N4    O56   1.302434 A    
C213  H98   1.109645 S    
O8    C4    1.305087 A    
C174  C181  1.458279 A    
C81   C123  1.477606 S    
N29   O106  1.300139 A    
C10   C26   1.612891 S    
C171  N51   1.425397 S    
C82   C124  1.477259 S    
N35   O117  1.303471 A    
C185  C186  1.544433 S    
C131  C135  1.384589 A    
O18   C113  1.303876 A    
N43   O133  1.300792 A    
C129  C149  1.415567 A    
N2    O52   1.302447 A    
C62   C66   1.393996 A    
N61   O170  1.299829 A    
O12   Cu2   1.948393 S    
O24   Cu8   1.950048 S    
O35   C122  1.289696 A    
N60   O168  1.303571 A    
C218  H107  1.110737 S    
C161  C167  1.365810 A    
C44   H8    1.098028 S    
C37   N9    1.486458 S    
N47   O141  1.302987 A    
O1    C1    1.306204 A    
O20   C114  1.304694 A    
C197  C198  1.523499 S    
C224  H121  1.102007 S    
C29   C33   1.656347 S    
N26   O99   1.302260 A    
C19   N59   1.487051 S    
C157  C177  1.420515 A    
C133  C211  1.514924 S    
N5    O57   1.300489 A    
C215  H103  1.109646 S    
C189  H39   1.088190 S    
C168  C172  1.397802 A    
C222  H116  1.102028 S    
C15   C19   1.602323 S    
N59   O165  1.302760 A    
N57   O161  1.301590 A    
C146  C153  1.458749 A    
C31   N7    1.501990 S    
C177  C183  1.407052 A    
C41   H5    1.098743 S    
Cu5   Cu6   2.721083 S    
C19   C35   1.633947 S    
C198  H56   1.110982 S    
C133  C139  1.390238 A    
N15   O78   1.300650 A    
C160  C180  1.420602 A    
O33   Cu9   1.989526 S    
N24   O96   1.300831 A    
C134  C209  1.513308 S    
N46   O140  1.298459 A    
N63   O174  1.300063 A    
C160  H20   1.079444 S    
C170  N50   1.425355 S    
Cu7   O31   1.990202 S    
N52   O152  1.300064 A    
C74   C82   1.454788 A    
C106  C195  1.529520 S    
C147  C154  1.460703 A    
C76   C80   1.415539 A    
C210  H87   1.110510 S    
C176  C178  1.423446 A    
N21   O89   1.300993 A    
N47   O142  1.298433 A    
C210  H86   1.108118 S    
C135  C215  1.513491 S    
C57   C61   1.398377 A    
O24   C118  1.309059 A    
N51   O150  1.299859 A    
C11   N35   1.500039 S    
C159  C163  1.373864 A    
O30   C119  1.303734 A    
C3    C95   1.476392 S    
C173  C181  1.459079 A    
O6    C2    1.307378 A    
O4    Cu2   1.996006 S    
N67   O182  1.300110 A    
N7    O62   1.302601 A    
C19   C221  1.592149 S    
C213  H99   1.105204 S    
O27   Cu8   1.947891 S    
C91   C111  1.416570 A    
C120  C184  1.466296 S    
C144  N48   1.427125 S    
Cu9   Cu10  2.656089 S    
C70   C74   1.453911 A    
C211  H93   1.109663 S    
C193  H48   1.110102 S    
C190  H36   1.108565 S    
N66   O179  1.302664 A    
N6    O60   1.302685 A    
O2    Cu1   1.996006 S    
C194  H46   1.110077 S    
O10   Cu1   1.948393 S    
O27   C117  1.306971 A    
Cu11  Cu12  2.656089 S    
O13   C5    1.306134 A    
C175  C177  1.423387 A    
C32   C36   1.655181 S    
C39   N11   1.485488 S    
C18   C219  1.592207 S    
N22   O92   1.300820 A    
N68   O183  1.302632 A    
C50   C54   1.207156 T    
C110  N38   1.445596 S    
C186  H25   1.102023 S    
O22   C116  1.309255 A    
C11   C31   1.648202 S    
H13   C162  1.080722 S    
O23   C117  1.308568 A    
C12   C32   1.648478 S    
C199  H63   1.109471 S    
C103  N31   1.439161 S    
O34   C121  1.289292 A    
C129  H9    1.079800 S    
C209  H89   1.105144 S    
C143  C147  1.459097 A    
N32   O111  1.300750 A    
C162  C168  1.365856 A    
N1    O49   1.301430 A    
N27   O101  1.302258 A    
N50   O148  1.299895 A    
N31   O110  1.301569 A    
O21   Cu5   1.950051 S    
N56   O160  1.297048 A    
C204  H70   1.107186 S    
N23   O93   1.300991 A    
C196  H50   1.101227 S    
N34   O115  1.303495 A    
O7    C3    1.307182 A    
C25   C41   1.592027 S    
C27   C51   1.486474 S    
C103  C107  1.400616 A    
C147  C149  1.417729 A    
C84   C126  1.477007 S    
N40   O128  1.302036 A    
N19   O86   1.301319 A    
C85   C97   1.458295 A    
C187  H33   1.109684 S    
C217  H108  1.092193 S    
C68   C72   1.415197 A    
C87   C99   1.458717 A    
O35   Cu11  1.989526 S    
N51   O149  1.302712 A    
N45   O137  1.303004 A    
C89   C93   1.403441 A    
C207  C208  1.536641 S    
C71   N27   1.427023 S    
C70   N26   1.427342 S    
C76   C84   1.455543 A    
C8    C56   1.435026 S    
C144  C148  1.458190 A    
N9    O66   1.301440 A    
C17   N57   1.491714 S    
N55   O158  1.297067 A    
C129  C133  1.384123 A    
C21   C115  1.435174 S    
O44   Cu11  1.995941 S    
N65   O178  1.300599 A    
Cu9   O45   1.990349 S    
C28   C44   1.591374 S    
C81   C85   1.460809 A    
C205  H79   1.074731 S    
C192  H40   1.107091 S    
C206  H76   1.106348 S    
C197  H58   1.105621 S    
O12   C8    1.306267 A    
C134  C140  1.390061 A    
C39   N67   1.488558 S    
O1    Cu1   1.996353 S    
O9    Cu1   1.949352 S    
C195  H54   1.105688 S    
N36   O120  1.298441 A    
C57   C77   1.415706 A    
C100  C104  1.423828 A    
C214  H96   1.108127 S    
N4    O55   1.301973 A    
C208  H82   1.109765 S    
O41   C123  1.287533 A    
N37   O122  1.301987 A    
C73   C77   1.416495 A    
C39   C43   1.603954 S    
C217  C218  1.530773 S    
C14   C26   1.580335 S    
O39   Cu11  1.994662 S    
C185  H29   1.103746 S    
C191  H43   1.109691 S    
N39   O125  1.301997 A    
C60   C64   1.397671 A    
C16   C20   1.601775 S    
C192  H42   1.110913 S    
C13   H1    1.094746 S    
C202  H67   1.109905 S    
N34   O116  1.298465 A    
C169  N49   1.425969 S    
N44   O136  1.301039 A    
C205  C206  1.538229 S    
O43   C125  1.288583 A    
O11   Cu2   1.949352 S    
C9    N33   1.501156 S    
N53   O153  1.301120 A    
C142  C146  1.457920 A    
C139  N43   1.437309 S    
C160  C164  1.374124 A    
C168  H24   1.084330 S    
O29   C119  1.303444 A    
C221  H119  1.112938 S    
N44   O135  1.300787 A    
C32   C191  1.592726 S    
O6    Cu3   1.996572 S    
C4    C96   1.476699 S    
C137  C141  1.414113 A    
C164  C166  1.365716 A    
C77   C93   1.407367 A    
C216  H101  1.108106 S    
C203  H73   1.109517 S    
C197  H59   1.105942 S    
N59   O166  1.303559 A    
C86   C90   1.413629 A    
N48   O144  1.298410 A    
N10   O68   1.301539 A    
N58   O163  1.302742 A    
C136  C138  1.390296 A    
C199  C200  1.533275 S    
O31   C120  1.303684 A    
C29   C185  1.595108 S    
C188  H31   1.108559 S    
C68   N24   1.436124 S    
Cu5   O29   1.990202 S    
C51   C55   1.207416 T    
O2    C2    1.301506 A    
C207  H84   1.076983 S    
C189  C190  1.537214 S    
O42   C124  1.288501 A    
N18   O83   1.301377 A    
C13   C17   1.595514 S    
C170  C174  1.462135 A    
C196  H52   1.110518 S    
N28   O103  1.302272 A    
C82   C86   1.461993 A    
C215  C216  1.527095 S    
N20   O88   1.301253 A    
O20   Cu8   1.990133 S    
C14   C18   1.601750 S    
C143  N47   1.427160 S    
C89   C109  1.414585 A    
O14   Cu3   1.949357 S    
O18   Cu6   1.990133 S    
C106  C110  1.411979 A    
C32   N8    1.502104 S    
C205  H78   1.109396 S    
C38   N10   1.485296 S    
Cu1   Cu3   2.712787 S    
N13   O73   1.302120 A    
Cu2   Cu4   2.712787 S    
C33   C45   1.487954 S    
O25   Cu6   1.947891 S    
N54   O156  1.297031 A    
N7    O61   1.301093 A    
C224  H120  1.099699 S    
C63   N19   1.435852 S    
N17   O81   1.301403 A    
C18   N58   1.487130 S    
C220  H110  1.099347 S    
C9    C29   1.661796 S    
C65   N21   1.436055 S    
N58   O164  1.303574 A    
C212  H91   1.108090 S    
N30   O108  1.301602 A    
C74   C78   1.413786 A    
N28   O104  1.299481 A    
O16   C8    1.303028 A    
C167  C171  1.397921 A    
C148  C154  1.459240 A    
Cu12  O48   1.989403 S    
C105  C193  1.521342 S    
C200  H62   1.105934 S    
O23   Cu7   1.950051 S    
N42   O132  1.301026 A    
C88   C100  1.456201 A    
C5    C53   1.435985 S    
C223  H123  1.092108 S    
C219  H113  1.091984 S    
C83   C87   1.462724 A    
C7    C55   1.435340 S    
N49   O145  1.302723 A    
C69   C73   1.454519 A    
C92   C96   1.406221 A    
C35   C47   1.488119 S    
C62   N18   1.435723 S    
