data_mof_unit_pretest_1182.cif
_audit_creation_date              2012-12-10T17:16:13-0500
_audit_creation_method            fapswitch 2.2
_symmetry_space_group_name_H-M    P1
_symmetry_Int_Tables_number       1
_space_group_crystal_system       triclinic
_cell_length_a                    19.402171
_cell_length_b                    13.036728
_cell_length_c                    11.645009
_cell_angle_alpha                 98.76345
_cell_angle_beta                  94.101741
_cell_angle_gamma                 90.507247
_cell_volume                      2903.07244691

loop_
_atom_site_label
_atom_site_type_symbol
_atom_type_description
_atom_site_fract_x
_atom_site_fract_y
_atom_site_fract_z
_atom_type_partial_charge
C1    C     C_R   0.501121 0.299331 0.480095 0.809449
C2    C     C_R   0.501896 0.700356 0.520362 0.825571
C3    C     C_R   0.503010 0.812725 0.531521 -0.145018
C4    C     C_R   0.507175 0.186849 0.471775 -0.133036
C5    C     C_R   0.534465 0.022588 0.358443 -0.189474
C6    C     C_R   0.475450 0.976474 0.642744 -0.189016
C7    C     C_R   0.525751 0.129030 0.367249 -0.300363
C8    C     C_R   0.477399 0.869611 0.630523 -0.277337
C9    C     C_R   0.496978 0.136699 0.568625 0.394019
C10   C     C_R   0.528022 0.863605 0.443820 0.415755
C11   C     C_R   0.497525 0.028303 0.554774 0.013772
C12   C     C_R   0.520228 0.971139 0.451566 0.021339
C13   C     C_R   0.437625 0.398470 0.022734 -0.364134
C14   C     C_R   0.561689 0.602789 0.977502 -0.335466
C15   C     C_R   0.443128 0.408752 0.144853 0.101995
C16   C     C_R   0.555453 0.593236 0.855324 0.082702
C17   C     C_R   0.526422 0.544604 0.156618 0.073176
C18   C     C_R   0.475539 0.453039 0.843299 0.018790
C19   C     C_R   0.522554 0.537194 0.033921 0.064604
C20   C     C_R   0.478161 0.462130 0.966121 0.068333
C21   C     C_R   0.366928 0.497723 0.499689 0.845652
C22   C     C_R   0.632643 0.500561 0.499989 0.815206
C23   C     C_R   0.256310 0.522328 0.602584 0.406360
C24   C     C_R   0.741121 0.459034 0.398771 0.387417
C25   C     C_R   0.185344 0.538658 0.598269 -0.238615
C26   C     C_R   0.812650 0.467904 0.396524 -0.237994
C27   C     C_R   0.144867 0.517853 0.493351 -0.070084
C28   C     C_R   0.853268 0.516929 0.494059 -0.071559
C29   C     C_R   0.176623 0.484203 0.390717 -0.292248
C30   C     C_R   0.821363 0.558415 0.594510 -0.264756
C31   C     C_R   0.249265 0.474710 0.390012 0.423791
C32   C     C_R   0.749674 0.548350 0.600306 0.408463
C33   C     C_R   0.289959 0.497382 0.497849 -0.237918
C34   C     C_R   0.708728 0.502213 0.499911 -0.243158
C35   C     C_R   0.929054 0.522830 0.492211 0.462997
C36   C     C_R   0.068875 0.523599 0.491978 0.463355
Cu1   Cu    Cu3+1 0.505120 0.507730 0.615930 0.954586
Cu2   Cu    Cu3+1 0.494880 0.492270 0.384070 0.970561
H1    H     H_    0.401915 0.341282 0.973224 0.129227
H2    H     H_    0.596356 0.661458 0.027300 0.144906
H3    H     H_    0.161557 0.561903 0.679328 0.179747
H4    H     H_    0.836237 0.435734 0.317745 0.176390
H5    H     H_    0.143564 0.464271 0.312058 0.175241
H6    H     H_    0.852184 0.600776 0.667872 0.165624
H7    H     H_    0.457886 0.831211 0.698195 0.186916
H8    H     H_    0.535319 0.166534 0.292919 0.169978
H9    H     H_    0.550598 0.980537 0.277586 0.188602
H10   H     H_    0.453915 0.017811 0.719203 0.182178
H11   H     H_    0.443942 0.392833 0.789891 0.139744
H12   H     H_    0.560766 0.601262 0.209626 0.138035
H13   H     H_    0.585281 0.644667 0.812493 0.156135
H14   H     H_    0.412026 0.358954 0.187729 0.154316
N1    N     N_R   0.028681 0.490003 0.392868 -0.250084
N2    N     N_R   0.969195 0.557637 0.591009 -0.246361
N3    N     N_R   0.960165 0.489545 0.392966 -0.249160
N4    N     N_R   0.037722 0.557955 0.590934 -0.247480
N5    N     N_R   0.512830 0.519350 0.790130 -0.189585
N6    N     N_R   0.487170 0.480650 0.209870 -0.189278
O1    O     O_R   0.503640 0.354460 0.582000 -0.573366
O2    O     O_R   0.496360 0.645540 0.418000 -0.554893
O3    O     O_R   0.494980 0.341410 0.386200 -0.607221
O4    O     O_R   0.505020 0.658590 0.613800 -0.591958
O5    O     O_R   0.404470 0.506520 0.597930 -0.560616
O6    O     O_R   0.595530 0.493480 0.402070 -0.569900
O7    O     O_R   0.395820 0.493460 0.402130 -0.533120
O8    O     O_R   0.604180 0.506540 0.597870 -0.564868
O9    O     O_3   0.291445 0.533225 0.711409 -0.588380
C37   C     C_3   0.300481 0.434182 0.746129 0.091359
H15   H     H_    0.333916 0.446405 0.828369 0.168266
H16   H     H_    0.327486 0.380390 0.681134 0.140144
C38   C     C_3   0.232761 0.383150 0.771937 -0.409862
H17   H     H_    0.204810 0.438864 0.833009 0.225691
H18   H     H_    0.199359 0.361230 0.690216 0.222450
C39   C     C_3   0.247121 0.284630 0.824866 -0.910791
H19   H     H_    0.276211 0.229061 0.765324 0.264006
H20   H     H_    0.197545 0.246882 0.838815 0.269073
H21   H     H_    0.277641 0.303698 0.909882 0.247828
O10   O     O_3   0.703371 0.413862 0.298003 -0.599639
C40   C     C_3   0.681724 0.311847 0.308577 0.102791
H22   H     H_    0.629373 0.298350 0.263139 0.173506
H23   H     H_    0.676713 0.299076 0.400366 0.096208
C41   C     C_3   0.730633 0.232541 0.249236 -0.361620
H24   H     H_    0.734443 0.244832 0.157472 0.232947
H25   H     H_    0.782943 0.243440 0.295313 0.216196
C42   C     C_3   0.705020 0.121697 0.250505 -0.937489
H26   H     H_    0.700524 0.107869 0.341493 0.259714
H27   H     H_    0.742184 0.065907 0.209199 0.263349
H28   H     H_    0.653846 0.107686 0.201059 0.251766
O11   O     O_3   0.282731 0.435700 0.290082 -0.600837
C43   C     C_3   0.243842 0.437060 0.182753 0.069836
H29   H     H_    0.280862 0.443877 0.115663 0.153738
H30   H     H_    0.211529 0.507305 0.183343 0.142554
C44   C     C_3   0.202768 0.334430 0.145473 -0.369977
H31   H     H_    0.236646 0.275670 0.099955 0.208679
H32   H     H_    0.186004 0.303156 0.222806 0.235232
C45   C     C_3   0.138836 0.348246 0.065442 -0.899172
H33   H     H_    0.100698 0.397167 0.114017 0.261403
H34   H     H_    0.114328 0.271308 0.031412 0.260453
H35   H     H_    0.152980 0.385831 0.991096 0.262087
O12   O     O_3   0.717969 0.594216 0.698164 -0.607154
C46   C     C_3   0.741964 0.553016 0.799398 0.075916
H36   H     H_    0.721165 0.602083 0.875181 0.158788
H37   H     H_    0.799083 0.558350 0.815616 0.131183
C47   C     C_3   0.716012 0.440890 0.796914 -0.368395
H38   H     H_    0.658761 0.437085 0.783995 0.237482
H39   H     H_    0.737385 0.389134 0.723683 0.203856
C48   C     C_3   0.738043 0.401441 0.910537 -0.916066
H40   H     H_    0.795083 0.407742 0.927962 0.262152
H41   H     H_    0.722271 0.318644 0.903735 0.253549
H42   H     H_    0.713026 0.446868 0.984348 0.270711
O13   O     O_3   0.558439 0.808756 0.349526 -0.621836
C49   C     C_3   0.627012 0.783240 0.384187 0.062818
H43   H     H_    0.640402 0.711106 0.327218 0.168023
H44   H     H_    0.633390 0.765788 0.475205 0.121301
C50   C     C_3   0.678243 0.869232 0.368580 -0.391587
H45   H     H_    0.671385 0.886293 0.277852 0.230130
H46   H     H_    0.668235 0.940912 0.429395 0.215119
C51   C     C_3   0.752694 0.837348 0.393166 -0.881331
H47   H     H_    0.760922 0.820993 0.483981 0.262490
H48   H     H_    0.788513 0.901358 0.381851 0.257136
H49   H     H_    0.764726 0.766990 0.331802 0.258685
O14   O     O_3   0.484629 0.192645 0.676134 -0.621920
C52   C     C_3   0.546826 0.203941 0.749816 0.054669
H50   H     H_    0.566704 0.284817 0.755358 0.179848
H51   H     H_    0.589087 0.151373 0.718653 0.114369
C53   C     C_3   0.531815 0.183505 0.871841 -0.353513
H52   H     H_    0.482313 0.219224 0.896064 0.232727
H53   H     H_    0.526556 0.098691 0.871994 0.204145
C54   C     C_3   0.589155 0.226604 0.963512 -0.903631
H54   H     H_    0.638632 0.188130 0.943425 0.251194
H55   H     H_    0.575615 0.211421 0.050525 0.250761
H56   H     H_    0.595535 0.311769 0.966785 0.270007

loop_
_geom_bond_atom_site_label_1
_geom_bond_atom_site_label_2
_ccdc_geom_bond_type
C44   H31   S    
C27   C29   A    
C50   H46   S    
O13   C49   S    
C16   H13   S    
C47   H39   S    
Cu1   O4    S    
C52   H50   S    
C42   H26   S    
C5    H9    S    
C53   H52   S    
C6    H10   S    
C24   C26   A    
C1    O1    A    
C2    O2    A    
C52   H51   S    
C21   C33   S    
C50   H45   S    
C45   H35   S    
C23   O9    S    
C51   H47   S    
C47   H38   S    
C36   N1    A    
C17   C19   A    
Cu2   N6    S    
C22   O8    A    
C8    H7    S    
C28   C35   S    
C37   H15   S    
C23   C33   A    
C39   H21   S    
C45   H34   S    
C48   H40   S    
C31   C33   A    
C17   N6    A    
Cu2   O3    S    
C42   H27   S    
C46   H37   S    
C29   H5    S    
C35   N2    A    
C48   H41   S    
C30   H6    S    
C4    C7    A    
C49   H44   S    
C49   H43   S    
Cu1   O5    S    
C46   H36   S    
Cu2   O6    S    
N1    N3    A    
C22   C34   S    
N2    N4    A    
C21   O5    A    
C39   H19   S    
C35   N3    A    
O9    C37   S    
C7    H8    S    
C49   C50   S    
C5    C12   A    
C3    C8    A    
C25   H3    S    
C6    C11   A    
C40   H23   S    
O10   C40   S    
C52   C53   S    
C6    C8    A    
C53   C54   S    
C31   O11   S    
C14   H2    S    
C24   C34   A    
C32   O12   S    
C51   H49   S    
C32   C34   A    
Cu1   Cu2   S    
C36   N4    A    
C38   C39   S    
C18   N5    A    
C43   H30   S    
Cu2   O7    S    
C50   C51   S    
C45   H33   S    
C9    O14   S    
C10   O13   S    
C15   H14   S    
C9    C11   A    
Cu1   O1    S    
C10   C12   A    
Cu2   O2    S    
C24   O10   S    
C44   C45   S    
C41   H25   S    
C13   C15   A    
C48   H42   S    
C14   C16   A    
C39   H20   S    
O11   C43   S    
C26   H4    S    
C43   C44   S    
C5    C7    A    
C54   H54   S    
C42   H28   S    
C53   H53   S    
C13   C20   A    
C21   O7    A    
C14   C19   A    
C1    O3    A    
C17   H12   S    
C40   C41   S    
C11   C12   A    
C27   C36   S    
C25   C27   A    
C41   C42   S    
C26   C28   A    
C1    C4    S    
C54   H56   S    
C19   C20   A    
C28   C30   A    
C2    C3    S    
O14   C52   S    
C38   H17   S    
C29   C31   A    
C3    C10   A    
C30   C32   A    
C43   H29   S    
C37   C38   S    
O12   C46   S    
C15   N6    A    
C18   C20   A    
C16   N5    A    
C23   C25   A    
Cu1   O8    S    
C51   H48   S    
C13   H1    S    
C22   O6    A    
C40   H22   S    
C44   H32   S    
C41   H24   S    
C38   H18   S    
C37   H16   S    
C46   C47   S    
C4    C9    A    
C47   C48   S    
Cu1   N5    S    
C2    O4    A    
C18   H11   S    
C54   H55   S    
