data_mof_unit_pretest_1931.cif
_audit_creation_date              2013-03-05T16:35:40-0500
_audit_creation_method            fapswitch 2.2
_symmetry_space_group_name_H-M    P1
_symmetry_Int_Tables_number       1
_space_group_crystal_system       triclinic
_cell_length_a                    41.379635
_cell_length_b                    35.537932
_cell_length_c                    21.401335
_cell_angle_alpha                 90.004148
_cell_angle_beta                  59.125973
_cell_angle_gamma                 90.005517
_cell_volume                      27012.051893

loop_
_atom_site_label
_atom_site_type_symbol
_atom_site_description
_atom_site_fract_x
_atom_site_fract_y
_atom_site_fract_z
_atom_type_partial_charge
O1    O     O_R   0.944560 0.468710 0.055440 -0.631455
O2    O     O_R   0.055440 0.468710 0.944560 -0.631192
O3    O     O_R   0.444560 0.968710 0.055440 -0.631454
O4    O     O_R   0.555440 0.968710 0.944560 -0.631189
O5    O     O_R   0.944560 0.531300 0.055450 -0.593502
O6    O     O_R   0.055440 0.531300 0.944550 -0.593614
O7    O     O_R   0.444560 0.031300 0.055450 -0.593505
O8    O     O_R   0.555440 0.031300 0.944550 -0.593619
C1    C     C_R   0.926565 0.500067 0.072625 0.918876
C2    C     C_R   0.073435 0.500070 0.927375 0.918976
C3    C     C_R   0.426565 0.000067 0.072625 0.918878
C4    C     C_R   0.573435 0.000070 0.927375 0.918981
O9    O     O_R   0.000010 0.468710 0.093020 -0.623289
O10   O     O_R   0.999990 0.468710 0.906980 -0.623323
O11   O     O_R   0.500010 0.968710 0.093020 -0.623290
O12   O     O_R   0.499990 0.968710 0.906980 -0.623323
O13   O     O_R   0.000010 0.531300 0.093030 -0.590897
O14   O     O_R   0.999990 0.531300 0.906970 -0.590895
O15   O     O_R   0.500010 0.031300 0.093030 -0.590901
O16   O     O_R   0.499990 0.031300 0.906970 -0.590896
C5    C     C_R   0.000194 0.499929 0.121250 0.968188
C6    C     C_R   0.999805 0.499927 0.878750 0.968116
C7    C     C_R   0.500194 0.999929 0.121250 0.968191
C8    C     C_R   0.499806 0.999927 0.878750 0.968117
Zn1   Zn    Zn3+2 0.000000 0.458210 0.000000 1.010464
Zn2   Zn    Zn3+2 0.500000 0.958210 0.000000 1.010463
Zn3   Zn    Zn3+2 0.000000 0.541790 0.000000 1.092194
Zn4   Zn    Zn3+2 0.500000 0.041790 0.000000 1.092186
C9    C     C_3   0.971399 0.520825 0.256962 -0.100981
C10   C     C_3   0.028606 0.520814 0.743037 -0.100932
C11   C     C_3   0.471402 0.020829 0.256959 -0.100987
C12   C     C_3   0.528606 0.020815 0.743038 -0.100936
C13   C     C_3   0.003523 0.535433 0.266277 0.249368
C14   C     C_3   0.996486 0.535427 0.733722 0.249440
C15   C     C_3   0.503529 0.035432 0.266272 0.249372
C16   C     C_3   0.496485 0.035427 0.733723 0.249439
C17   C     C_3   0.999352 0.500439 0.312185 -0.271143
C18   C     C_3   0.000648 0.500432 0.687815 -0.270940
C19   C     C_3   0.499352 0.000439 0.312185 -0.271144
C20   C     C_3   0.500648 0.000432 0.687815 -0.270938
C21   C     C_3   0.967058 0.485970 0.302678 0.300745
C22   C     C_3   0.032938 0.485959 0.697321 0.300576
C23   C     C_3   0.467056 0.985975 0.302681 0.300740
C24   C     C_3   0.532939 0.985960 0.697321 0.300575
C25   C     C_3   0.996000 0.464830 0.234234 0.045872
C26   C     C_3   0.003991 0.464823 0.765766 0.045962
C27   C     C_3   0.495994 0.964831 0.234240 0.045878
C28   C     C_3   0.503992 0.964823 0.765765 0.045957
C29   C     C_3   0.028853 0.478636 0.243188 -0.317337
C30   C     C_3   0.971142 0.478633 0.756811 -0.318082
C31   C     C_3   0.528849 0.978631 0.243192 -0.317326
C32   C     C_3   0.471142 0.978632 0.756811 -0.318076
C33   C     C_3   0.032205 0.514019 0.197886 0.258019
C34   C     C_3   0.967798 0.514016 0.802113 0.258204
C35   C     C_3   0.532207 0.014014 0.197884 0.258021
C36   C     C_3   0.467798 0.014015 0.802114 0.258206
C37   C     C_3   0.000116 0.499645 0.188145 -0.199098
C38   C     C_3   0.999884 0.499638 0.811855 -0.198983
C39   C     C_3   0.500116 0.999645 0.188145 -0.199101
C40   C     C_3   0.499884 0.999638 0.811855 -0.198983
H1    H     H_    0.052403 0.461279 0.238058 0.210489
H2    H     H_    0.947586 0.461279 0.761942 0.209963
H3    H     H_    0.552397 0.961271 0.238064 0.210485
H4    H     H_    0.447588 0.961277 0.761941 0.209963
C41   C     C_R   0.673168 0.515216 0.278404 0.338878
C42   C     C_R   0.326837 0.515246 0.721579 0.339279
C43   C     C_R   0.173169 0.015215 0.278404 0.338858
C44   C     C_R   0.826836 0.015245 0.721580 0.339258
C45   C     C_R   0.633932 0.516000 0.319788 -0.296179
C46   C     C_R   0.366073 0.516022 0.680198 -0.298940
C47   C     C_R   0.133932 0.015999 0.319788 -0.296157
C48   C     C_R   0.866073 0.016021 0.680199 -0.298921
H5    H     H_    0.618511 0.532015 0.300412 0.214046
H6    H     H_    0.381498 0.532041 0.699565 0.213187
H7    H     H_    0.118512 0.032013 0.300411 0.214090
H8    H     H_    0.881498 0.032039 0.699567 0.213228
C49   C     C_R   0.614287 0.496514 0.385796 -0.255221
C50   C     C_R   0.385712 0.496523 0.614203 -0.254904
C51   C     C_R   0.114287 0.996514 0.385796 -0.255251
C52   C     C_R   0.885713 0.996523 0.614202 -0.254931
C53   C     C_R   0.633984 0.475180 0.411298 0.326451
C54   C     C_R   0.366010 0.475185 0.588710 0.326345
C55   C     C_R   0.133984 0.975181 0.411299 0.326441
C56   C     C_R   0.866009 0.975186 0.588709 0.326336
C57   C     C_R   0.673458 0.474613 0.370810 -0.005126
C58   C     C_R   0.326536 0.474625 0.629196 -0.005559
C59   C     C_R   0.173458 0.974613 0.370812 -0.005130
C60   C     C_R   0.826536 0.974626 0.629194 -0.005563
C61   C     C_R   0.692894 0.494694 0.304767 -0.095762
C62   C     C_R   0.307105 0.494718 0.695228 -0.095938
C63   C     C_R   0.192894 0.994693 0.304767 -0.095763
C64   C     C_R   0.807105 0.994718 0.695227 -0.095938
C65   C     C_1   0.733060 0.495274 0.266042 0.083690
C66   C     C_1   0.266939 0.495301 0.733954 0.083311
C67   C     C_1   0.233060 0.995274 0.266043 0.083687
C68   C     C_1   0.766939 0.995301 0.733954 0.083308
C69   C     C_1   0.766670 0.496362 0.233353 0.082799
C70   C     C_1   0.233329 0.496388 0.766644 0.083089
C71   C     C_1   0.266670 0.996361 0.233354 0.082799
C72   C     C_1   0.733329 0.996388 0.766644 0.083088
C73   C     C_R   0.825001 0.530442 0.150879 0.303582
C74   C     C_R   0.174998 0.530460 0.849126 0.303988
C75   C     C_R   0.325001 0.030441 0.150880 0.303581
C76   C     C_R   0.674998 0.030459 0.849129 0.303988
C77   C     C_R   0.864680 0.531243 0.110149 0.003857
C78   C     C_R   0.135319 0.531255 0.889858 0.003818
C79   C     C_R   0.364680 0.031243 0.110149 0.003853
C80   C     C_R   0.635319 0.031254 0.889861 0.003817
C81   C     C_R   0.885256 0.500171 0.113068 -0.058406
C82   C     C_R   0.114744 0.500180 0.886932 -0.058650
C83   C     C_R   0.385256 0.000171 0.113068 -0.058405
C84   C     C_R   0.614744 0.000180 0.886932 -0.058646
C85   C     C_R   0.866167 0.468639 0.155342 -0.203986
C86   C     C_R   0.133833 0.468650 0.844650 -0.203560
C87   C     C_R   0.366167 0.968639 0.155342 -0.203984
C88   C     C_R   0.633833 0.968651 0.844648 -0.203558
H9    H     H_    0.881481 0.444612 0.158165 0.184314
H10   H     H_    0.118519 0.444621 0.841823 0.184602
H11   H     H_    0.381481 0.944612 0.158165 0.184313
H12   H     H_    0.618519 0.944622 0.841817 0.184602
C89   C     C_R   0.827146 0.467898 0.195344 -0.193901
C90   C     C_R   0.172854 0.467916 0.804647 -0.193479
C91   C     C_R   0.327146 0.967898 0.195345 -0.193900
C92   C     C_R   0.672853 0.967917 0.804644 -0.193479
H13   H     H_    0.812861 0.443289 0.227788 0.168243
H14   H     H_    0.187139 0.443309 0.772197 0.168636
H15   H     H_    0.312862 0.943289 0.227789 0.168243
H16   H     H_    0.687139 0.943310 0.772192 0.168638
C93   C     C_R   0.806682 0.498559 0.193443 0.001360
C94   C     C_R   0.193318 0.498580 0.806554 0.001064
C95   C     C_R   0.306682 0.998558 0.193444 0.001361
C96   C     C_R   0.693318 0.998580 0.806554 0.001061
O17   O     O_R   0.031280 0.555400 0.468730 -0.605290
O18   O     O_R   0.968720 0.555400 0.531270 -0.605223
O19   O     O_R   0.531280 0.055400 0.468730 -0.605261
O20   O     O_R   0.468720 0.055400 0.531270 -0.605238
C97   C     C_R   0.000001 0.573547 0.500000 0.956100
C98   C     C_R   0.500001 0.073547 0.500001 0.956123
O21   O     O_R   0.031290 0.499960 0.375690 -0.628580
O22   O     O_R   0.968710 0.499960 0.624310 -0.628750
O23   O     O_R   0.531290 0.999960 0.375690 -0.628564
O24   O     O_R   0.468710 0.999960 0.624310 -0.628745
O25   O     O_R   0.968700 0.499940 0.438280 -0.565900
O26   O     O_R   0.031300 0.499940 0.561720 -0.565884
O27   O     O_R   0.468700 0.999940 0.438280 -0.565904
O28   O     O_R   0.531300 0.999940 0.561720 -0.565892
C99   C     C_R   0.999831 0.500222 0.378654 1.027992
C100  C     C_R   0.000169 0.500217 0.621346 1.027745
C101  C     C_R   0.499831 0.000222 0.378654 1.027997
C102  C     C_R   0.500169 0.000217 0.621346 1.027738
Zn5   Zn    Zn3+2 0.041800 0.499960 0.458210 1.119811
Zn6   Zn    Zn3+2 0.958200 0.499960 0.541790 1.119003
Zn7   Zn    Zn3+2 0.541800 0.999960 0.458210 1.119822
Zn8   Zn    Zn3+2 0.458200 0.999960 0.541790 1.119006
O29   O     O_R   0.031310 0.444530 0.468680 -0.595669
O30   O     O_R   0.968690 0.444530 0.531320 -0.596837
O31   O     O_R   0.531310 0.944530 0.468680 -0.595673
O32   O     O_R   0.468690 0.944530 0.531320 -0.596834
C103  C     C_R   0.999998 0.426684 0.499996 0.994249
C104  C     C_R   0.499998 0.926684 0.499996 0.994247
O33   O     O_R   0.500010 0.555340 0.552490 -0.625912
O34   O     O_R   0.499990 0.555340 0.447510 -0.625841
O35   O     O_R   0.000010 0.055340 0.552490 -0.625933
O36   O     O_R   0.999990 0.055340 0.447510 -0.625796
C105  C     C_R   0.499978 0.573241 0.500026 0.870944
C106  C     C_R   0.999978 0.073240 0.500026 0.870925
O37   O     O_R   0.555450 0.499900 0.497080 -0.574908
O38   O     O_R   0.444550 0.499900 0.502920 -0.575863
O39   O     O_R   0.055450 0.999900 0.497080 -0.574971
O40   O     O_R   0.944550 0.999900 0.502920 -0.575919
O41   O     O_R   0.555440 0.499880 0.392050 -0.623650
O42   O     O_R   0.444560 0.499880 0.607950 -0.623940
O43   O     O_R   0.055440 0.999880 0.392050 -0.623590
O44   O     O_R   0.944560 0.999880 0.607950 -0.623887
C107  C     C_R   0.573199 0.498900 0.426939 0.934628
C108  C     C_R   0.426800 0.498902 0.573061 0.932723
C109  C     C_R   0.073200 0.998900 0.426939 0.934620
C110  C     C_R   0.926800 0.998902 0.573061 0.932716
Zn9   Zn    Zn3+2 0.500010 0.499910 0.570130 1.065413
Zn10  Zn    Zn3+2 0.499990 0.499910 0.429870 1.065159
Zn11  Zn    Zn3+2 0.000010 0.999910 0.570130 1.065389
Zn12  Zn    Zn3+2 0.999990 0.999910 0.429870 1.065193
O45   O     O_R   0.500000 0.444470 0.552540 -0.578950
O46   O     O_R   0.500000 0.444470 0.447460 -0.578952
O47   O     O_R   0.000000 0.944470 0.552540 -0.578949
O48   O     O_R   0.000000 0.944470 0.447460 -0.578952
C111  C     C_R   0.500000 0.426769 0.499998 0.925973
C112  C     C_R   1.000000 0.926769 0.499998 0.925971
C113  C     C_R   0.476429 0.326641 0.564349 -0.165184
C114  C     C_R   0.523580 0.326645 0.435618 -0.165374
C115  C     C_R   0.976429 0.826641 0.564350 -0.165183
C116  C     C_R   0.023580 0.826645 0.435620 -0.165372
H17   H     H_    0.458179 0.311034 0.613726 0.149172
H18   H     H_    0.541831 0.311041 0.386236 0.149020
H19   H     H_    0.958179 0.811034 0.613728 0.149172
H20   H     H_    0.041831 0.811041 0.386239 0.149019
C117  C     C_R   0.476044 0.365964 0.565046 0.086199
C118  C     C_R   0.523960 0.365969 0.434931 0.086287
C119  C     C_R   0.976044 0.865964 0.565047 0.086198
C120  C     C_R   0.023960 0.865968 0.434932 0.086285
C121  C     C_R   0.500001 0.385698 0.499992 -0.025685
C122  C     C_R   0.000001 0.885698 0.499992 -0.025687
C123  C     C_R   0.500005 0.307357 0.499981 0.092680
C124  C     C_R   0.000005 0.807357 0.499983 0.092680
C125  C     C_1   0.500008 0.267429 0.499977 -0.009218
C126  C     C_1   0.000008 0.767430 0.499980 -0.009215
C127  C     C_1   0.000008 0.733854 0.499981 -0.006266
C128  C     C_1   0.500008 0.233855 0.499978 -0.006268
C129  C     C_R   0.967391 0.674665 0.548480 -0.164221
C130  C     C_R   0.032622 0.674665 0.451501 -0.164544
C131  C     C_R   0.467390 0.174666 0.548475 -0.164221
C132  C     C_R   0.532623 0.174664 0.451505 -0.164590
H21   H     H_    0.942353 0.690337 0.586114 0.149473
H22   H     H_    0.057662 0.690335 0.413862 0.149259
H23   H     H_    0.442351 0.190337 0.586105 0.149471
H24   H     H_    0.557664 0.190334 0.413867 0.149265
C133  C     C_R   0.966891 0.635348 0.549361 0.095601
C134  C     C_R   0.033119 0.635347 0.450635 0.095689
C135  C     C_R   0.466890 0.135348 0.549357 0.095586
C136  C     C_R   0.533120 0.135347 0.450642 0.095672
C137  C     C_R   0.000004 0.615167 0.499999 -0.010076
C138  C     C_R   0.500004 0.115167 0.500001 -0.010052
C139  C     C_R   0.000007 0.693922 0.499987 0.096023
C140  C     C_R   0.500007 0.193922 0.499985 0.096040
C141  C     C_R   0.498820 0.673697 0.444090 0.105205
C142  C     C_R   0.499905 0.673686 0.557284 0.104232
C143  C     C_R   0.998368 0.173696 0.444562 0.105220
C144  C     C_R   0.000359 0.173686 0.556828 0.104280
C145  C     C_R   0.499150 0.634335 0.444194 -0.208091
C146  C     C_R   0.500202 0.634325 0.556509 -0.207282
C147  C     C_R   0.998708 0.134334 0.444650 -0.208067
C148  C     C_R   0.000645 0.134325 0.556058 -0.207314
H25   H     H_    0.498797 0.619230 0.400585 0.170877
H26   H     H_    0.500689 0.619212 0.599970 0.170936
H27   H     H_    0.998000 0.119227 0.401406 0.170843
H28   H     H_    0.001488 0.119213 0.599154 0.170914
C149  C     C_R   0.499808 0.614526 0.500209 -0.084515
C150  C     C_R   0.999808 0.114526 0.500210 -0.084475
C151  C     C_R   0.499333 0.693194 0.500726 0.109312
C152  C     C_R   0.999334 0.193193 0.500734 0.109322
C153  C     C_1   0.499573 0.733384 0.500493 0.008864
C154  C     C_1   0.999575 0.233384 0.500495 0.008880
C155  C     C_1   0.999730 0.267019 0.500316 0.025468
C156  C     C_1   0.499729 0.767019 0.500317 0.025466
C157  C     C_R   0.979612 0.326406 0.474742 -0.201279
C158  C     C_R   0.020187 0.326357 0.525402 -0.194515
C159  C     C_R   0.479611 0.826407 0.474743 -0.201371
C160  C     C_R   0.520186 0.826357 0.525403 -0.194423
H29   H     H_    0.964408 0.310842 0.454299 0.186774
H30   H     H_    0.035325 0.310757 0.545937 0.192153
H31   H     H_    0.464407 0.810843 0.454300 0.186742
H32   H     H_    0.535324 0.810757 0.545937 0.192170
C161  C     C_R   0.979855 0.365706 0.473250 0.261644
C162  C     C_R   0.020072 0.365660 0.526738 0.257900
C163  C     C_R   0.479855 0.865706 0.473250 0.261677
C164  C     C_R   0.520072 0.865660 0.526738 0.257868
C165  C     C_R   0.999987 0.385567 0.499974 -0.276786
C166  C     C_R   0.499987 0.885567 0.499974 -0.276788
C167  C     C_R   0.999860 0.307042 0.500126 0.020176
C168  C     C_R   0.499858 0.807042 0.500127 0.020179
N1    N     N_R   0.006731 0.574390 0.283661 0.242921
O49   O     O_R   0.008370 0.601268 0.240906 -0.299147
O50   O     O_R   0.004876 0.582743 0.344532 -0.442761
N2    N     N_R   0.993287 0.574384 0.716338 0.242890
O51   O     O_R   0.991657 0.601263 0.759092 -0.299166
O52   O     O_R   0.995143 0.582737 0.655468 -0.442788
N3    N     N_R   0.506743 0.074389 0.283649 0.242923
O53   O     O_R   0.508385 0.101267 0.240892 -0.299154
O54   O     O_R   0.504892 0.082741 0.344518 -0.442743
N4    N     N_R   0.493285 0.074384 0.716341 0.242892
O55   O     O_R   0.491655 0.101263 0.759094 -0.299168
O56   O     O_R   0.495134 0.082737 0.655476 -0.442791
N5    N     N_3   0.693481 0.452677 0.396441 -0.369604
H33   H     H_    0.711350 0.470565 0.403718 0.211882
H34   H     H_    0.709965 0.432825 0.356590 0.194623
N6    N     N_3   0.306507 0.452684 0.603577 -0.369361
H35   H     H_    0.288643 0.470570 0.596289 0.211514
H36   H     H_    0.290017 0.432839 0.643439 0.195185
N7    N     N_3   0.193480 0.952678 0.396443 -0.369604
H37   H     H_    0.211350 0.970566 0.403720 0.211875
H38   H     H_    0.209965 0.932825 0.356593 0.194627
N8    N     N_3   0.806507 0.952686 0.603574 -0.369361
H39   H     H_    0.788643 0.970572 0.596287 0.211508
H40   H     H_    0.790017 0.932840 0.643434 0.195189
N9    N     N_R   0.803504 0.561948 0.149701 0.213032
O57   O     O_R   0.808639 0.574666 0.088258 -0.311488
O58   O     O_R   0.777454 0.576921 0.210325 -0.340886
N10   N     N_R   0.196495 0.561970 0.850310 0.212889
O59   O     O_R   0.191359 0.574688 0.911756 -0.312351
O60   O     O_R   0.222546 0.576946 0.789689 -0.343137
N11   N     N_R   0.303504 0.061948 0.149702 0.213033
O61   O     O_R   0.308639 0.074665 0.088259 -0.311482
O62   O     O_R   0.277454 0.076921 0.210327 -0.340896
N12   N     N_R   0.696495 0.061968 0.850316 0.212889
O63   O     O_R   0.691359 0.074685 0.911763 -0.312344
O64   O     O_R   0.722546 0.076945 0.789696 -0.343145
N13   N     N_3   0.884179 0.563420 0.066409 -0.377742
H41   H     H_    0.878165 0.565908 0.024789 0.285105
H42   H     H_    0.874591 0.587494 0.099063 0.220860
N14   N     N_3   0.115820 0.563428 0.933606 -0.377864
H43   H     H_    0.121835 0.565917 0.975226 0.285079
H44   H     H_    0.125407 0.587504 0.900959 0.220510
N15   N     N_3   0.384179 0.063419 0.066409 -0.377744
H45   H     H_    0.378164 0.065907 0.024790 0.285105
H46   H     H_    0.374590 0.087494 0.099063 0.220859
N16   N     N_3   0.615820 0.063427 0.933613 -0.377866
H47   H     H_    0.621834 0.065914 0.975233 0.285081
H48   H     H_    0.625407 0.087503 0.900968 0.220510
N17   N     N_3   0.450970 0.385971 0.630943 -0.410256
H49   H     H_    0.430583 0.399028 0.623382 0.205833
H50   H     H_    0.436623 0.367259 0.674418 0.198121
N18   N     N_3   0.549033 0.385981 0.369040 -0.410349
H51   H     H_    0.569419 0.399043 0.376605 0.205606
H52   H     H_    0.563381 0.367271 0.325560 0.197933
N19   N     N_3   0.950969 0.885972 0.630943 -0.410255
H53   H     H_    0.930582 0.899028 0.623381 0.205832
H54   H     H_    0.936622 0.867260 0.674419 0.198122
N20   N     N_3   0.049033 0.885980 0.369041 -0.410346
H55   H     H_    0.069419 0.899043 0.376607 0.205607
H56   H     H_    0.063382 0.867271 0.325561 0.197935
N21   N     N_3   0.933022 0.616070 0.601166 -0.396746
H57   H     H_    0.910153 0.634598 0.624776 0.197693
H58   H     H_    0.936832 0.606544 0.643142 0.247518
N22   N     N_3   0.066987 0.616068 0.398840 -0.396938
H59   H     H_    0.089863 0.634592 0.375271 0.197366
H60   H     H_    0.063190 0.606560 0.356835 0.247503
N23   N     N_3   0.433020 0.116070 0.601157 -0.396745
H61   H     H_    0.410150 0.134599 0.624765 0.197692
H62   H     H_    0.436827 0.106544 0.643137 0.247519
N24   N     N_3   0.566989 0.116068 0.398852 -0.396938
H63   H     H_    0.589871 0.134586 0.375334 0.197361
H64   H     H_    0.563206 0.106588 0.356812 0.247506
N25   N     N_3   0.498285 0.694055 0.386542 -0.430528
H65   H     H_    0.500063 0.675512 0.346952 0.200010
H66   H     H_    0.472124 0.707387 0.409055 0.194185
N26   N     N_3   0.500507 0.694031 0.614781 -0.433147
H67   H     H_    0.503050 0.675482 0.649949 0.199827
H68   H     H_    0.474417 0.707339 0.645547 0.197048
N27   N     N_3   0.997361 0.194052 0.387497 -0.430602
H69   H     H_    0.998826 0.175509 0.348179 0.199975
H70   H     H_    0.971175 0.207388 0.410623 0.194230
N28   N     N_3   0.001433 0.194031 0.613839 -0.433130
H71   H     H_    0.004289 0.175483 0.648640 0.199814
H72   H     H_    0.975383 0.207337 0.645156 0.196960
N29   N     N_3   0.940743 0.543684 0.262831 -0.373662
H73   H     H_    0.925841 0.554347 0.315802 0.246049
H74   H     H_    0.922500 0.525672 0.256980 0.196986
N30   N     N_3   0.059268 0.543670 0.737167 -0.373875
H75   H     H_    0.074173 0.554331 0.684196 0.245884
H76   H     H_    0.077507 0.525655 0.743018 0.196944
N31   N     N_3   0.440750 0.043694 0.262826 -0.373659
H77   H     H_    0.425849 0.054359 0.315794 0.246045
H78   H     H_    0.422503 0.025684 0.256978 0.196988
N32   N     N_3   0.559267 0.043672 0.737168 -0.373876
H79   H     H_    0.574172 0.054334 0.684198 0.245879
H80   H     H_    0.577507 0.025658 0.743017 0.196944
N33   N     N_R   0.960868 0.384838 0.441958 0.227524
O65   O     O_R   0.930525 0.370476 0.447702 -0.323825
O66   O     O_R   0.976781 0.413281 0.398525 -0.421805
N34   N     N_R   0.039118 0.384749 0.557965 0.227444
O67   O     O_R   0.069426 0.370311 0.552243 -0.319955
O68   O     O_R   0.023284 0.413233 0.601330 -0.422335
N35   N     N_R   0.460867 0.884839 0.441959 0.227515
O69   O     O_R   0.430523 0.870476 0.447704 -0.323832
O70   O     O_R   0.476780 0.913282 0.398527 -0.421819
N36   N     N_R   0.539119 0.884749 0.557964 0.227450
O71   O     O_R   0.569426 0.870310 0.552242 -0.319945
O72   O     O_R   0.523285 0.913233 0.601329 -0.422326
N37   N     N_R   0.930883 0.471402 0.359939 0.247662
O73   O     O_R   0.920027 0.437793 0.354853 -0.298111
O74   O     O_R   0.907879 0.493189 0.413177 -0.355663
N38   N     N_R   0.069109 0.471386 0.640060 0.247680
O75   O     O_R   0.079954 0.437774 0.645140 -0.297338
O76   O     O_R   0.092119 0.493172 0.586823 -0.355602
N39   N     N_R   0.430879 0.971412 0.359944 0.247657
O77   O     O_R   0.420019 0.937804 0.354867 -0.298119
O78   O     O_R   0.407877 0.993204 0.413178 -0.355671
N40   N     N_R   0.569110 0.971388 0.640058 0.247678
O79   O     O_R   0.579955 0.937776 0.645137 -0.297332
O80   O     O_R   0.592120 0.993174 0.586822 -0.355610
N41   N     N_3   0.991837 0.426326 0.216034 -0.370472
H81   H     H_    0.990307 0.408918 0.256798 0.254802
H82   H     H_    0.016757 0.419181 0.168224 0.206626
N42   N     N_3   0.008144 0.426318 0.783965 -0.370393
H83   H     H_    0.009665 0.408910 0.743204 0.254436
H84   H     H_    0.983223 0.419177 0.831780 0.206113
N43   N     N_3   0.491825 0.926327 0.216046 -0.370485
H85   H     H_    0.490293 0.908919 0.256812 0.254802
H86   H     H_    0.516744 0.919178 0.168236 0.206622
N44   N     N_3   0.508146 0.926318 0.783962 -0.370385
H87   H     H_    0.509668 0.908911 0.743201 0.254445
H88   H     H_    0.483226 0.919176 0.831777 0.206117
N45   N     N_R   0.067832 0.528398 0.138685 0.224214
O81   O     O_R   0.079183 0.562072 0.141855 -0.311928
O82   O     O_R   0.089065 0.506947 0.083248 -0.400433
N46   N     N_R   0.932175 0.528399 0.861314 0.224175
O83   O     O_R   0.920834 0.562075 0.858145 -0.311662
O84   O     O_R   0.910936 0.506951 0.916750 -0.400838
N47   N     N_R   0.567836 0.028387 0.138680 0.224210
O85   O     O_R   0.579192 0.062060 0.141846 -0.311927
O86   O     O_R   0.589066 0.006934 0.083246 -0.400431
N48   N     N_R   0.432174 0.028397 0.861316 0.224174
O87   O     O_R   0.420832 0.062073 0.858148 -0.311657
O88   O     O_R   0.410936 0.006948 0.916751 -0.400836
N49   N     N_R   0.692303 0.535608 0.210573 0.239924
O89   O     O_R   0.723222 0.522659 0.155361 -0.319938
O90   O     O_R   0.676733 0.565194 0.201184 -0.331450
N50   N     N_R   0.307707 0.535652 0.789397 0.239697
O91   O     O_R   0.276784 0.522714 0.844616 -0.319593
O92   O     O_R   0.323287 0.565241 0.798768 -0.336118
N51   N     N_R   0.192304 0.035605 0.210571 0.239925
O93   O     O_R   0.223223 0.022656 0.155361 -0.319933
O94   O     O_R   0.176734 0.065192 0.201181 -0.331388
N52   N     N_R   0.807707 0.035649 0.789399 0.239698
O95   O     O_R   0.776784 0.022711 0.844618 -0.319588
O96   O     O_R   0.823286 0.065238 0.798772 -0.336059
N53   N     N_R   0.614185 0.452778 0.476191 0.233033
O97   O     O_R   0.623479 0.454194 0.525730 -0.323793
O98   O     O_R   0.588832 0.428692 0.483247 -0.407373
N54   N     N_R   0.385803 0.452772 0.523829 0.233090
O99   O     O_R   0.376508 0.454177 0.474291 -0.324346
O100  O     O_R   0.411152 0.428689 0.516781 -0.406859
N55   N     N_R   0.114185 0.952778 0.476193 0.233033
O101  O     O_R   0.123479 0.954196 0.525732 -0.323818
O102  O     O_R   0.088832 0.928692 0.483250 -0.407364
N56   N     N_R   0.885803 0.952773 0.523827 0.233090
O103  O     O_R   0.876509 0.954180 0.474288 -0.324364
O104  O     O_R   0.911152 0.928689 0.516778 -0.406849

loop_
_geom_bond_atom_site_label_1
_geom_bond_atom_site_label_2
_geom_bond_distance
_ccdc_geom_bond_type
O1    Zn1   2.004106 S    
C42   N50   1.442168 S    
N33   O65   1.301378 A    
C35   C39   1.533473 S    
N51   O94   1.301562 A    
C55   C59   1.402385 A    
N11   O61   1.300714 A    
O17   Zn5   2.005363 S    
C76   C80   1.409835 A    
N15   H46   1.045540 S    
N25   H65   1.045688 S    
C113  C123  1.392766 A    
O17   C97   1.284574 A    
C123  C125  1.418934 S    
C25   C37   1.536373 S    
N8    H39   1.045569 S    
C54   N54   1.437398 S    
O40   C110  1.289387 A    
C118  N18   1.438484 S    
N54   O99   1.301131 A    
N46   O84   1.300308 A    
Zn8   O32   2.004816 S    
O26   Zn5   2.026897 S    
C59   C63   1.409686 A    
C67   C71   1.194400 T    
C9    C13   1.532347 S    
N38   O75   1.300090 A    
C11   C39   1.533471 S    
O16   C8    1.269855 A    
O28   C102  1.265239 A    
Zn6   O30   2.004816 S    
N22   H59   1.045826 S    
C129  H21   1.084421 S    
C46   H6    1.083848 S    
Zn5   O29   2.004765 S    
O4    C4    1.284758 A    
O22   Zn6   2.023930 S    
Zn9   O45   2.005874 S    
C80   N16   1.435159 S    
N52   O96   1.301563 A    
C133  C137  1.422088 A    
C87   C91   1.386389 A    
N24   H63   1.045832 S    
C56   C60   1.402381 A    
C42   C62   1.410420 A    
C58   C62   1.409689 A    
C119  N19   1.438484 S    
C126  C127  1.193186 T    
N44   H88   1.044946 S    
C132  C136  1.397383 A    
O38   Zn10  2.006518 S    
C157  C161  1.396911 A    
O13   C5    1.269859 A    
O7    Zn4   2.003986 S    
C60   N8    1.435848 S    
C41   C61   1.410420 A    
O34   C105  1.291181 A    
C50   C54   1.411986 A    
C75   N11   1.438334 S    
N15   H45   1.044353 S    
C44   C48   1.394783 A    
C133  N21   1.438034 S    
N16   H47   1.044353 S    
C116  C124  1.392767 A    
C20   C102  1.432802 S    
C143  N27   1.438381 S    
C17   C99   1.432806 S    
N40   O80   1.300274 A    
C18   C100  1.432802 S    
C79   N15   1.435158 S    
O42   Zn9   2.003454 S    
N50   O92   1.301564 A    
O43   Zn12  2.003462 S    
C14   C34   1.532049 S    
O31   C104  1.280167 A    
O39   C109  1.289392 A    
N41   H81   1.044595 S    
O8    Zn4   2.004037 S    
N4    O56   1.299405 A    
C164  N36   1.438173 S    
N43   H85   1.044595 S    
N14   H43   1.044352 S    
C113  C117  1.397549 A    
N47   O86   1.300311 A    
C142  C151  1.405639 A    
O3    Zn2   2.004106 S    
C74   C94   1.406953 A    
C25   N41   1.456906 S    
N26   H67   1.045691 S    
O11   Zn2   2.025603 S    
N42   H84   1.044944 S    
C6    C38   1.430018 S    
N39   O77   1.300092 A    
C72   C96   1.423196 S    
C106  C150  1.467225 S    
N45   O81   1.299964 A    
C129  C133  1.397392 A    
N9    O58   1.301199 A    
C130  H22   1.084418 S    
N49   O89   1.301283 A    
C42   C46   1.394784 A    
C29   C33   1.550010 S    
C143  C152  1.405712 A    
C112  C122  1.459575 S    
N30   H75   1.044760 S    
C44   C64   1.410421 A    
C146  H26   1.083202 S    
C31   C35   1.550010 S    
N7    H38   1.045643 S    
O3    C3    1.284761 A    
C27   C39   1.536372 S    
C28   C32   1.546843 S    
C120  C122  1.412964 A    
N21   H57   1.045823 S    
C117  N17   1.438485 S    
C21   C25   1.530984 S    
C75   C79   1.409828 A    
C15   N3    1.457170 S    
N40   O79   1.300090 A    
C23   C27   1.530985 S    
O33   C105  1.291137 A    
C160  H32   1.084189 S    
C19   C31   1.555949 S    
C127  C139  1.419111 S    
C13   N1    1.457173 S    
O35   Zn11  2.005743 S    
C45   C49   1.399080 A    
N31   H77   1.044760 S    
C156  C168  1.422353 S    
C47   C51   1.399079 A    
C7    C39   1.430017 S    
C144  N28   1.438378 S    
C11   C23   1.530866 S    
C12   C16   1.532349 S    
N11   O62   1.301201 A    
C144  C152  1.405683 A    
Zn12  O48   2.005929 S    
N1    O49   1.300258 A    
C98   C138  1.479089 S    
N47   O85   1.299964 A    
C64   C68   1.426896 S    
N18   H51   1.045646 S    
C92   C96   1.393379 A    
C74   N10   1.438327 S    
N20   H56   1.045692 S    
C158  C167  1.392158 A    
O5    Zn3   2.003986 S    
C53   N53   1.437396 S    
N2    O51   1.300256 A    
C164  C166  1.417076 A    
C119  C122  1.412963 A    
C51   C109  1.461760 S    
O33   Zn9   2.005743 S    
C82   C86   1.401680 A    
O34   Zn10  2.005691 S    
C116  C120  1.397553 A    
C103  C165  1.461220 S    
O40   Zn12  2.006518 S    
N13   H42   1.045541 S    
C145  H25   1.083201 S    
C11   N31   1.456563 S    
C120  N20   1.438484 S    
N34   O67   1.301372 A    
N53   O98   1.301272 A    
O7    C3    1.280848 A    
N17   H50   1.045692 S    
C36   N48   1.456947 S    
C47   H7    1.083844 S    
C73   C77   1.409832 A    
C43   C63   1.410421 A    
C10   C14   1.532344 S    
O29   C103  1.280167 A    
O13   Zn3   2.025800 S    
C134  N22   1.438024 S    
N23   H62   1.044961 S    
C10   N30   1.456563 S    
C162  C165  1.417077 A    
C142  C146  1.398890 A    
C88   H12   1.083365 S    
N10   O60   1.301202 A    
O5    C1    1.280848 A    
C91   H15   1.084044 S    
O8    C4    1.280846 A    
C151  C153  1.428323 S    
O24   Zn8   2.023930 S    
O15   Zn4   2.025800 S    
C85   H9    1.083366 S    
O27   Zn8   2.026892 S    
C26   N42   1.456903 S    
C87   H11   1.083364 S    
C33   N45   1.456948 S    
N30   H76   1.045097 S    
C65   C69   1.194400 T    
C4    C84   1.467162 S    
C134  C137  1.422083 A    
O37   C107  1.289392 A    
N48   O87   1.299961 A    
C132  C140  1.388995 A    
O38   C108  1.289387 A    
C77   C81   1.415253 A    
C16   N4    1.457172 S    
C9    C21   1.530869 S    
O14   C6    1.269856 A    
C79   C83   1.415254 A    
C34   N46   1.456948 S    
C124  C126  1.418934 S    
N43   H86   1.044945 S    
N3    O53   1.300259 A    
C159  H31   1.084213 S    
C128  C140  1.419111 S    
C131  C135  1.397392 A    
C19   C101  1.432808 S    
N8    H40   1.045641 S    
O46   C111  1.288427 A    
C153  C156  1.195324 T    
O10   C6    1.265155 A    
N54   O100  1.301271 A    
C48   C52   1.399074 A    
O9    C5    1.265150 A    
C135  C138  1.422086 A    
O23   Zn7   2.023922 S    
C44   N52   1.442169 S    
C68   C72   1.194400 T    
O21   Zn5   2.023922 S    
N5    H34   1.045644 S    
C57   N5    1.435848 S    
C50   C108  1.461743 S    
C17   C21   1.539632 S    
C115  H19   1.084259 S    
C63   C67   1.426896 S    
C113  H17   1.084260 S    
C20   C24   1.539626 S    
C85   C89   1.386389 A    
N6    H35   1.045568 S    
N22   H60   1.044946 S    
N32   H79   1.044761 S    
C27   N43   1.456907 S    
C146  C149  1.402531 A    
C147  H27   1.083223 S    
C75   C95   1.406949 A    
C53   C57   1.402385 A    
O42   C108  1.289155 A    
N37   O74   1.300274 A    
C73   C93   1.406949 A    
O37   Zn9   2.006520 S    
C143  C147  1.398924 A    
C84   C88   1.401678 A    
C52   C56   1.411991 A    
O18   C97   1.284574 A    
C159  C168  1.392113 A    
N55   O102  1.301270 A    
C30   C34   1.550008 S    
N24   H64   1.044951 S    
C147  C150  1.402537 A    
C116  H20   1.084262 S    
C22   N38   1.458700 S    
C161  N33   1.438165 S    
C78   C82   1.415252 A    
N12   O63   1.300721 A    
N28   H72   1.045611 S    
N56   O103  1.301130 A    
C66   C70   1.194400 T    
C76   N12   1.438323 S    
C97   C137  1.479085 S    
C22   C26   1.530987 S    
N36   O71   1.301373 A    
C157  H29   1.084210 S    
C160  C168  1.392158 A    
N16   H48   1.045541 S    
N35   O69   1.301377 A    
C45   H5    1.083845 S    
N29   H74   1.045098 S    
O44   C110  1.289155 A    
O26   C100  1.265239 A    
C92   H16   1.084043 S    
C163  C166  1.417057 A    
N19   H53   1.045643 S    
N33   O66   1.300447 A    
O32   C104  1.280142 A    
C136  C138  1.422080 A    
N14   H44   1.045539 S    
C62   C66   1.426896 S    
N25   H66   1.045586 S    
C1    C81   1.467169 S    
C29   H1    1.110187 S    
C3    C83   1.467169 S    
O35   C106  1.291132 A    
O1    C1    1.284761 A    
N46   O83   1.299964 A    
N26   H68   1.045563 S    
C32   H4    1.110185 S    
C33   C37   1.533472 S    
C27   C31   1.546838 S    
C158  C162  1.397004 A    
C54   C58   1.402385 A    
C61   C65   1.426900 S    
C141  C145  1.398918 A    
C80   C84   1.415249 A    
C52   C110  1.461743 S    
C15   C19   1.538747 S    
N9    O57   1.300719 A    
C16   C36   1.532054 S    
O45   C111  1.288428 A    
O20   Zn8   2.005313 S    
N27   H69   1.045717 S    
C49   C53   1.411991 A    
O18   Zn6   2.005313 S    
C70   C94   1.423196 S    
C104  C166  1.461213 S    
C154  C155  1.195324 T    
C31   H3    1.110187 S    
C155  C167  1.422353 S    
O39   Zn11  2.006520 S    
O25   Zn6   2.026892 S    
C9    C37   1.533470 S    
C56   N56   1.437399 S    
N52   O95   1.301283 A    
C129  C139  1.388997 A    
C11   C15   1.532350 S    
C115  C124  1.392765 A    
C12   C40   1.533474 S    
O48   C112  1.288427 A    
C144  C148  1.398881 A    
C136  N24   1.438020 S    
C114  C118  1.397553 A    
C57   C61   1.409684 A    
C130  C139  1.388996 A    
C88   C92   1.386386 A    
C91   C95   1.393376 A    
N28   H71   1.045737 S    
C89   C93   1.393375 A    
C130  C134  1.397391 A    
O6    C2    1.280848 A    
O4    Zn2   2.004052 S    
N31   H78   1.045101 S    
N44   H87   1.044602 S    
O16   Zn4   2.025753 S    
C111  C121  1.459575 S    
C105  C149  1.467232 S    
C14   N2    1.457176 S    
C135  N23   1.438039 S    
O24   C102  1.270421 A    
C158  H30   1.084192 S    
N7    H37   1.045568 S    
N23   H61   1.045833 S    
C51   C55   1.411993 A    
N3    O54   1.299395 A    
O28   Zn7   2.026897 S    
C41   C45   1.394784 A    
C131  C140  1.389002 A    
N18   H52   1.045692 S    
C2    C82   1.467162 S    
O2    Zn1   2.004052 S    
C43   C47   1.394784 A    
O10   Zn1   2.025660 S    
Zn7   O31   2.004765 S    
C157  C167  1.392116 A    
C13   C17   1.538746 S    
O36   Zn12  2.005691 S    
C9    N29   1.456563 S    
C36   C40   1.533476 S    
N50   O91   1.301283 A    
N2    O52   1.299397 A    
C76   C96   1.406952 A    
N51   O93   1.301283 A    
N41   H82   1.044944 S    
N4    O55   1.300258 A    
C10   C22   1.530870 S    
C141  N25   1.438351 S    
O27   C101  1.265238 A    
C58   N6    1.435847 S    
C159  C163  1.396908 A    
O19   C98   1.284578 A    
C24   C28   1.530988 S    
C46   C50   1.399076 A    
C13   C33   1.532052 S    
N13   H41   1.044351 S    
O15   C7    1.269858 A    
C148  H28   1.083225 S    
C48   H8    1.083846 S    
N42   H83   1.044602 S    
O22   C100  1.270421 A    
N34   O68   1.300452 A    
N53   O97   1.301129 A    
O23   C101  1.270428 A    
N17   H49   1.045646 S    
O25   C99   1.265238 A    
N45   O82   1.300310 A    
O21   C99   1.270428 A    
N56   O104  1.301271 A    
C115  C119  1.397552 A    
C18   C22   1.539627 S    
N49   O90   1.301563 A    
C114  C123  1.392766 A    
C131  H23   1.084423 S    
C17   C29   1.555950 S    
C73   N9    1.438331 S    
C89   H13   1.084043 S    
C132  H24   1.084422 S    
N38   O76   1.300274 A    
N21   H58   1.044947 S    
C117  C121  1.412963 A    
C25   C29   1.546837 S    
C163  N35   1.438168 S    
C81   C85   1.401681 A    
O11   C7    1.265150 A    
C49   C107  1.461759 S    
C148  C150  1.402560 A    
N35   O70   1.300446 A    
O9    Zn1   2.025603 S    
C77   N13   1.435157 S    
O44   Zn11  2.003454 S    
C24   N40   1.458702 S    
C12   N32   1.456561 S    
C28   C40   1.536372 S    
N48   O88   1.300311 A    
N39   O78   1.300276 A    
C41   N49   1.442168 S    
N19   H54   1.045691 S    
C15   C35   1.532053 S    
C60   C64   1.409688 A    
C16   C20   1.538745 S    
O20   C98   1.284571 A    
C21   N37   1.458700 S    
N55   O101  1.301130 A    
N1    O50   1.299389 A    
Zn11  O47   2.005874 S    
O47   C112  1.288427 A    
C19   C23   1.539627 S    
C20   C32   1.555950 S    
O41   C107  1.289154 A    
C78   N14   1.435159 S    
C23   N39   1.458701 S    
C90   H14   1.084045 S    
C162  N34   1.438171 S    
C5    C37   1.430014 S    
N20   H55   1.045646 S    
C161  C165  1.417060 A    
O6    Zn3   2.004037 S    
O43   C109  1.289154 A    
C8    C40   1.430018 S    
C118  C121  1.412966 A    
C152  C154  1.428319 S    
N5    H33   1.045571 S    
C12   C24   1.530869 S    
C86   H10   1.083362 S    
C28   N44   1.456903 S    
N27   H70   1.045633 S    
N6    H36   1.045641 S    
N32   H80   1.045099 S    
C30   H2    1.110186 S    
O41   Zn10  2.003462 S    
O2    C2    1.284760 A    
Zn10  O46   2.005929 S    
C43   N51   1.442168 S    
N37   O73   1.300087 A    
C34   C38   1.533474 S    
C125  C128  1.193186 T    
C14   C18   1.538742 S    
O30   C103  1.280142 A    
O14   Zn3   2.025753 S    
O12   Zn2   2.025660 S    
C59   N7    1.435846 S    
C160  C164  1.397000 A    
C18   C30   1.555949 S    
C26   C30   1.546838 S    
O19   Zn7   2.005363 S    
C71   C95   1.423199 S    
N10   O59   1.300720 A    
O36   C106  1.291179 A    
C69   C93   1.423199 S    
N12   O64   1.301203 A    
C142  N26   1.438335 S    
C55   N55   1.437396 S    
C141  C151  1.405677 A    
C10   C38   1.533475 S    
C74   C78   1.409832 A    
N36   O72   1.300452 A    
C35   N47   1.456947 S    
C114  H18   1.084259 S    
C86   C90   1.386386 A    
O12   C8    1.265154 A    
C83   C87   1.401684 A    
N29   H73   1.044761 S    
C145  C149  1.402511 A    
C90   C94   1.393378 A    
C26   C38   1.536370 S    
C32   C36   1.550007 S    
