data_mof_unit_pretest_920.cif
_audit_creation_date              2012-12-10T16:37:25-0500
_audit_creation_method            fapswitch 2.2
_symmetry_space_group_name_H-M    P1
_symmetry_Int_Tables_number       1
_space_group_crystal_system       triclinic
_cell_length_a                    16.895499
_cell_length_b                    16.674626
_cell_length_c                    16.895499
_cell_angle_alpha                 65.70971
_cell_angle_beta                  65.567794
_cell_angle_gamma                 65.709795
_cell_volume                      3779.46555374

loop_
_atom_site_label
_atom_site_type_symbol
_atom_type_description
_atom_site_fract_x
_atom_site_fract_y
_atom_site_fract_z
_atom_type_partial_charge
C1    C     C_R   0.405648 0.037189 0.668665 -0.219771
C2    C     C_R   0.404595 0.665648 0.038386 -0.218784
C3    C     C_R   0.955408 0.600236 0.329083 -0.224878
C4    C     C_R   0.930628 0.456539 0.695538 -0.222405
C5    C     C_R   0.959987 0.179815 0.438658 0.925729
C6    C     C_R   0.038963 0.820339 0.561093 0.924479
C7    C     C_R   0.179435 0.438441 0.960555 0.966780
C8    C     C_R   0.822578 0.568637 0.023009 0.931375
C9    C     C_R   0.437532 0.962709 0.179468 0.931400
C10   C     C_R   0.562522 0.037128 0.820532 0.928343
C11   C     C_R   0.561093 0.820339 0.038963 0.924472
C12   C     C_R   0.594852 0.960903 0.331840 -0.219543
C13   C     C_R   0.438658 0.179815 0.959987 0.925731
C14   C     C_R   0.023009 0.568637 0.822577 0.931374
C15   C     C_R   0.960555 0.438441 0.179435 0.966781
C16   C     C_R   0.820532 0.037128 0.562522 0.928341
C17   C     C_R   0.179468 0.962709 0.437532 0.931409
C18   C     C_R   0.447571 0.059393 0.709260 -0.152735
C19   C     C_R   0.552739 0.939163 0.291043 -0.151024
C20   C     C_R   0.062929 0.704510 0.446834 -0.147724
C21   C     C_R   0.915157 0.298825 0.556472 -0.161677
C22   C     C_R   0.736890 0.500351 0.949205 -0.154366
C23   C     C_R   0.038386 0.665648 0.404595 -0.218786
C24   C     C_R   0.288636 0.557823 0.933414 -0.148691
C25   C     C_R   0.291043 0.939163 0.552739 -0.151022
C26   C     C_R   0.709260 0.059393 0.447571 -0.152735
C27   C     C_R   0.556472 0.298825 0.915157 -0.161677
C28   C     C_R   0.446835 0.704510 0.062929 -0.147727
C29   C     C_R   0.933414 0.557823 0.288636 -0.148689
C30   C     C_R   0.949205 0.500350 0.736890 -0.154366
C31   C     C_R   0.541818 0.023281 0.541818 0.039193
C32   C     C_R   0.458695 0.974874 0.458695 0.039155
C33   C     C_R   0.989172 0.556662 0.549101 0.039623
C34   C     C_R   0.922669 0.346635 0.602570 -0.219303
C35   C     C_R   0.949678 0.469515 0.463214 0.039149
C36   C     C_R   0.549101 0.556663 0.989172 0.039623
C37   C     C_R   0.463214 0.469515 0.949678 0.039149
C38   C     C_R   0.587188 0.013030 0.453393 0.044321
C39   C     C_R   0.413377 0.984978 0.547170 0.043970
C40   C     C_R   0.954446 0.480145 0.600880 0.048105
C41   C     C_R   0.969601 0.554609 0.414751 0.044228
C42   C     C_R   0.455220 0.593253 0.998409 0.042152
C43   C     C_R   0.556660 0.431611 0.942330 0.044263
C44   C     C_R   0.547170 0.984978 0.413377 0.043970
C45   C     C_R   0.695538 0.456539 0.930628 -0.222404
C46   C     C_R   0.453394 0.013030 0.587188 0.044321
C47   C     C_R   0.414752 0.554609 0.969601 0.044228
C48   C     C_R   0.600880 0.480146 0.954445 0.048104
C49   C     C_R   0.942330 0.431611 0.556660 0.044263
C50   C     C_R   0.998409 0.593253 0.455220 0.042152
C51   C     C_R   0.540904 0.053516 0.673535 0.000834
C52   C     C_R   0.459342 0.945370 0.326699 0.000151
C53   C     C_R   0.045652 0.674997 0.541821 0.006753
C54   C     C_R   0.928474 0.332584 0.462044 0.001903
C55   C     C_R   0.686718 0.566688 0.996989 -0.006673
C56   C     C_R   0.329084 0.600236 0.955408 -0.224878
C57   C     C_R   0.326746 0.464054 0.935638 -0.004914
C58   C     C_R   0.326699 0.945371 0.459342 0.000146
C59   C     C_R   0.673535 0.053516 0.540903 0.000835
C60   C     C_R   0.462044 0.332585 0.928474 0.001902
C61   C     C_R   0.541821 0.674997 0.045652 0.006756
C62   C     C_R   0.935638 0.464054 0.326746 -0.004915
C63   C     C_R   0.996989 0.566688 0.686718 -0.006672
C64   C     C_R   0.590554 0.060339 0.721001 -0.258186
C65   C     C_R   0.409517 0.939165 0.279038 -0.258911
C66   C     C_R   0.058859 0.720489 0.589122 -0.266524
C67   C     C_R   0.331840 0.960903 0.594852 -0.219543
C68   C     C_R   0.931260 0.280964 0.410727 -0.263739
C69   C     C_R   0.727123 0.603886 0.028863 -0.231740
C70   C     C_R   0.278760 0.411374 0.933930 -0.259436
C71   C     C_R   0.279038 0.939165 0.409516 -0.258904
C72   C     C_R   0.721001 0.060339 0.590553 -0.258187
C73   C     C_R   0.410727 0.280964 0.931260 -0.263739
C74   C     C_R   0.589122 0.720489 0.058859 -0.266529
C75   C     C_R   0.933929 0.411374 0.278760 -0.259434
C76   C     C_R   0.028862 0.603886 0.727123 -0.231742
C77   C     C_R   0.674696 0.076084 0.674696 0.434662
C78   C     C_R   0.668665 0.037189 0.405647 -0.219771
C79   C     C_R   0.325231 0.923708 0.325231 0.435636
C80   C     C_R   0.068429 0.674536 0.674964 0.431722
C81   C     C_R   0.919224 0.325716 0.324937 0.433151
C82   C     C_R   0.674964 0.674536 0.068430 0.431724
C83   C     C_R   0.324937 0.325716 0.919224 0.433152
C84   C     C_R   0.585294 0.043816 0.585294 0.073633
C85   C     C_R   0.415053 0.954781 0.415053 0.074300
C86   C     C_R   0.012229 0.598321 0.592173 0.072489
C87   C     C_R   0.937163 0.422277 0.417559 0.076593
C88   C     C_R   0.592173 0.598321 0.012229 0.072490
C89   C     C_R   0.602570 0.346635 0.922669 -0.219303
C90   C     C_R   0.417559 0.422278 0.937162 0.076593
C91   C     C_3   0.693762 0.192978 0.693756 -0.319882
C92   C     C_3   0.305669 0.807426 0.305637 -0.318468
C93   C     C_3   0.196916 0.689926 0.673164 -0.316211
C94   C     C_3   0.810122 0.292051 0.310029 -0.288577
C95   C     C_3   0.673156 0.689935 0.196915 -0.316204
C96   C     C_3   0.310027 0.292053 0.810122 -0.288576
H1    H     H_    0.334195 0.043100 0.700728 0.137994
H2    H     H_    0.331439 0.691163 0.054162 0.138187
H3    H     H_    0.956292 0.670819 0.294370 0.138794
H4    H     H_    0.894155 0.406492 0.739902 0.129018
H5    H     H_    0.403693 0.085061 0.766823 0.169983
H6    H     H_    0.596443 0.913662 0.233333 0.173348
H7    H     H_    0.097573 0.756532 0.403799 0.161500
H8    H     H_    0.895363 0.236741 0.597233 0.170422
H9    H     H_    0.808906 0.480592 0.923533 0.164214
H10   H     H_    0.228470 0.601407 0.912617 0.178215
H11   H     H_    0.233333 0.913662 0.596443 0.173350
H12   H     H_    0.666342 0.954818 0.299832 0.137996
H13   H     H_    0.766823 0.085061 0.403693 0.169982
H14   H     H_    0.597233 0.236742 0.895362 0.170423
H15   H     H_    0.403799 0.756531 0.097573 0.161493
H16   H     H_    0.912617 0.601407 0.228470 0.178216
H17   H     H_    0.923533 0.480591 0.808906 0.164214
H18   H     H_    0.719145 0.224000 0.619103 0.139465
H19   H     H_    0.726987 0.209880 0.726982 0.182702
H20   H     H_    0.619110 0.224006 0.719133 0.139466
H21   H     H_    0.380283 0.776244 0.280198 0.136513
H22   H     H_    0.272263 0.790966 0.272240 0.182769
H23   H     H_    0.054163 0.691163 0.331439 0.138188
H24   H     H_    0.280265 0.776215 0.380250 0.136517
H25   H     H_    0.224252 0.712032 0.707735 0.186137
H26   H     H_    0.214170 0.729447 0.599950 0.136656
H27   H     H_    0.230782 0.614972 0.681929 0.143323
H28   H     H_    0.797400 0.257598 0.274441 0.185838
H29   H     H_    0.770754 0.366032 0.291918 0.142395
H30   H     H_    0.785475 0.259062 0.384347 0.130776
H31   H     H_    0.599943 0.729458 0.214163 0.136646
H32   H     H_    0.707725 0.712047 0.224250 0.186136
H33   H     H_    0.681920 0.614982 0.230789 0.143325
H34   H     H_    0.915676 0.313495 0.673994 0.134884
H35   H     H_    0.291917 0.366034 0.770755 0.142393
H36   H     H_    0.274438 0.257601 0.797400 0.185838
H37   H     H_    0.384345 0.259063 0.785474 0.130777
H38   H     H_    0.739902 0.406492 0.894155 0.129018
H39   H     H_    0.294370 0.670820 0.956292 0.138794
H40   H     H_    0.299832 0.954818 0.666342 0.137996
H41   H     H_    0.700729 0.043100 0.334195 0.137993
H42   H     H_    0.673994 0.313496 0.915676 0.134885
O1    O     O_R   0.982940 0.138950 0.510160 -0.645275
O2    O     O_R   0.982940 0.510160 0.138950 -0.653694
O3    O     O_R   0.861050 0.017060 0.489840 -0.653265
O4    O     O_R   0.138950 0.982940 0.510160 -0.652099
O5    O     O_R   0.867700 0.025880 0.612340 -0.563592
O6    O     O_R   0.132300 0.974120 0.387660 -0.560943
O7    O     O_R   0.025880 0.612340 0.867700 -0.573835
O8    O     O_R   0.974120 0.387660 0.132300 -0.554525
O9    O     O_R   0.612340 0.867700 0.025880 -0.567976
O10   O     O_R   0.387660 0.132300 0.974120 -0.561559
O11   O     O_R   0.387660 0.974120 0.132300 -0.560946
O12   O     O_R   0.017060 0.861050 0.489840 -0.644105
O13   O     O_R   0.612340 0.025880 0.867700 -0.563591
O14   O     O_R   0.132300 0.387660 0.974120 -0.554525
O15   O     O_R   0.867700 0.612340 0.025880 -0.573836
O16   O     O_R   0.974120 0.132300 0.387660 -0.561560
O17   O     O_R   0.025880 0.867700 0.612340 -0.567976
O18   O     O_3   0.716466 0.096530 0.716466 -0.559659
O19   O     O_3   0.283245 0.903811 0.283247 -0.557520
O20   O     O_3   0.102083 0.708248 0.713326 -0.563674
O21   O     O_3   0.904111 0.281111 0.281431 -0.558431
O22   O     O_3   0.713326 0.708248 0.102084 -0.563674
O23   O     O_R   0.138950 0.510160 0.982940 -0.653694
O24   O     O_3   0.281431 0.281111 0.904111 -0.558431
O25   O     O_R   0.861050 0.489840 0.017060 -0.673173
O26   O     O_R   0.510160 0.982940 0.138950 -0.652097
O27   O     O_R   0.489840 0.017060 0.861050 -0.653265
O28   O     O_R   0.489840 0.861050 0.017060 -0.644106
O29   O     O_R   0.510160 0.138950 0.982940 -0.645274
O30   O     O_R   0.017060 0.489840 0.861050 -0.673173
Zn1   Zn    Zn3+2 0.004880 0.004880 0.583590 0.984368
Zn2   Zn    Zn3+2 0.995120 0.995120 0.416410 0.988829
Zn3   Zn    Zn3+2 0.004880 0.583590 0.004880 0.978512
Zn4   Zn    Zn3+2 0.995120 0.416410 0.995120 0.986146
Zn5   Zn    Zn3+2 0.583590 0.004880 0.004880 0.984367
Zn6   Zn    Zn3+2 0.416410 0.995120 0.995120 0.988826

loop_
_geom_bond_atom_site_label_1
_geom_bond_atom_site_label_2
_ccdc_geom_bond_type
C15   C75   S    
C78   H41   S    
C94   O21   S    
C65   C79   A    
O8    Zn4   S    
C64   C77   A    
C29   H16   S    
C36   C42   A    
C16   C72   S    
C92   H21   S    
C7    C70   S    
C71   C79   A    
C20   H7    S    
O12   Zn2   S    
C36   C88   A    
C7    O23   A    
C14   O7    A    
C9    O11   A    
C1    C18   A    
C43   C89   A    
C37   C90   A    
C17   O6    A    
O13   Zn5   S    
C68   C81   A    
C52   C85   A    
C93   H25   S    
C27   C60   A    
C77   O18   S    
C23   H23   S    
C54   C87   A    
O14   Zn4   S    
C19   H6    S    
C1    C46   A    
C13   O29   A    
C54   C68   A    
C63   C76   A    
C5    O16   A    
O6    Zn2   S    
C60   C73   A    
C91   H20   S    
O16   Zn2   S    
O11   Zn6   S    
C32   C39   A    
C55   C88   A    
C3    C29   A    
C92   H22   S    
C69   C82   A    
C21   H8    S    
C35   C87   A    
C95   H32   S    
C4    C40   A    
C27   H14   S    
C96   O24   S    
C24   C57   A    
C31   C46   A    
C25   C67   A    
C35   C49   A    
C11   O28   A    
C27   C89   A    
C53   C86   A    
C57   C70   A    
C37   C47   A    
C43   C48   A    
C39   C46   A    
C6    O17   A    
C59   C72   A    
C96   H36   S    
C28   C61   A    
C16   O3    A    
C30   C63   A    
O1    Zn1   S    
C74   C82   A    
C5    C68   S    
C35   C41   A    
C19   C52   A    
C18   C51   A    
C5    O1    A    
C94   H30   S    
C28   H15   S    
C32   C44   A    
C10   C64   S    
O28   Zn6   S    
C33   C40   A    
C57   C90   A    
C95   O22   S    
C93   H27   S    
C16   O5    A    
C59   C84   A    
O5    Zn1   S    
C1    H1    S    
C12   H12   S    
C8    C69   S    
C75   C81   A    
C23   C50   A    
C21   C34   A    
C38   C78   A    
C33   C50   A    
C96   H37   S    
C8    O25   A    
O10   Zn6   S    
C31   C84   A    
C92   O19   S    
C18   H5    S    
O23   Zn3   S    
C37   C43   A    
C9    O26   A    
C33   C86   A    
C38   C44   A    
C72   C77   A    
C8    O15   A    
C61   C88   A    
C95   H31   S    
C10   O13   A    
C82   O22   S    
O17   Zn1   S    
C80   O20   S    
C20   C23   A    
O30   Zn4   S    
O15   Zn3   S    
C45   H38   S    
O26   Zn5   S    
C26   C78   A    
C93   H26   S    
C70   C83   A    
C47   C56   A    
C26   H13   S    
C2    H2    S    
C55   C69   A    
C96   H35   S    
C83   O24   S    
C13   C73   S    
C17   C71   S    
O2    Zn3   S    
O4    Zn1   S    
C63   C86   A    
C62   C75   A    
C24   H10   S    
C25   C58   A    
C14   O30   A    
C58   C85   A    
C41   C50   A    
C56   H39   S    
C25   H11   S    
C15   O2    A    
C26   C59   A    
C45   C48   A    
C29   C62   A    
C3    C41   A    
C34   C49   A    
C39   C67   A    
O25   Zn4   S    
C51   C64   A    
C76   C80   A    
C20   C53   A    
C11   C74   S    
C79   O19   S    
C15   O8    A    
C81   O21   S    
O9    Zn5   S    
C22   C55   A    
C60   C90   A    
C61   C74   A    
C24   C56   A    
C22   H9    S    
C66   C80   A    
C62   C87   A    
C31   C38   A    
O29   Zn5   S    
C4    H4    S    
C67   H40   S    
O27   Zn6   S    
C91   O18   S    
C12   C44   A    
C53   C66   A    
C11   O9    A    
C21   C54   A    
C2    C42   A    
C10   O27   A    
C32   C85   A    
C12   C19   A    
O3    Zn2   S    
C91   H19   S    
C36   C48   A    
C42   C47   A    
C92   H24   S    
C93   O20   S    
C58   C71   A    
C9    C65   S    
O7    Zn3   S    
C7    O14   A    
C6    O12   A    
C3    H3    S    
C6    C66   S    
C22   C45   A    
C34   H34   S    
C89   H42   S    
C95   H33   S    
C17   O4    A    
C2    C28   A    
C13   O10   A    
C51   C84   A    
C73   C83   A    
C91   H18   S    
C4    C30   A    
C52   C65   A    
C40   C49   A    
C14   C76   S    
C94   H29   S    
C30   H17   S    
C94   H28   S    
