data_mof_unit_pretest_521.cif
_audit_creation_date              2012-10-26T21:21:04-0400
_audit_creation_method            fapswitch 2.2
_symmetry_space_group_name_H-M    P1
_symmetry_Int_Tables_number       1
_space_group_crystal_system       triclinic
_cell_length_a                    10.891755
_cell_length_b                    10.925528
_cell_length_c                    9.720423
_cell_angle_alpha                 90.517239
_cell_angle_beta                  90.142236
_cell_angle_gamma                 90.257815
_cell_volume                      1156.65006435

loop_
_atom_site_label
_atom_site_type_symbol
_atom_type_description
_atom_site_fract_x
_atom_site_fract_y
_atom_site_fract_z
_atom_type_partial_charge
C1    C     C_R   0.497438 0.265591 0.499176 0.589803
C2    C     C_2   0.481592 0.134163 0.496182 0.078429
C3    C     C_2   0.439250 0.420750 0.921387 -0.030331
C4    C     C_R   0.262068 0.507599 0.499888 0.555587
C5    C     C_2   0.447512 0.415193 0.076449 -0.031879
C6    C     C_R   0.505593 0.734290 0.500795 0.568294
C7    C     C_R   0.737124 0.488940 0.501035 0.535050
C8    C     C_R   0.111664 0.568748 0.750819 -0.116502
C9    C     C_R   0.046998 0.560887 0.874526 -0.111653
C10   C     C_R   0.934546 0.498510 0.879326 0.161451
C11   C     C_R   0.884963 0.453083 0.756770 -0.044024
C12   C     C_R   0.061384 0.520594 0.626851 -0.004491
C13   C     C_R   0.938407 0.481171 0.629494 -0.011919
C14   C     C_3   0.136012 0.372198 0.183481 -0.280698
C15   C     C_3   0.797486 0.385137 0.035408 -0.311209
C16   C     C_3   0.745834 0.142422 0.362136 -0.287505
C17   C     C_R   0.126787 0.512802 0.500041 0.008648
C18   C     C_R   0.059673 0.491781 0.376088 0.116550
C19   C     C_R   0.933826 0.477096 0.381685 -0.124803
C20   C     C_R   0.871364 0.476042 0.505239 -0.050616
C21   C     C_2   0.518582 0.932926 0.391812 -0.132020
C22   C     C_2   0.524461 0.865170 0.504915 -0.109647
C23   C     C_2   0.540616 0.064813 0.400981 0.110560
Cu1   Cu    Cu3+1 0.500020 0.500020 0.638630 0.946460
Cu2   Cu    Cu3+1 0.499980 0.499980 0.361370 0.936164
H1    H     H_    0.381853 0.353044 0.869855 0.164741
H2    H     H_    0.546561 0.907013 0.603827 0.134417
H3    H     H_    0.176462 0.559301 0.221131 0.276938
H4    H     H_    0.169571 0.382129 0.076413 0.136687
H5    H     H_    0.050073 0.317198 0.180782 0.146510
H6    H     H_    0.205867 0.322964 0.244977 0.170473
H7    H     H_    0.904398 0.541488 0.085150 0.265542
H8    H     H_    0.750379 0.395442 0.135622 0.172226
H9    H     H_    0.860805 0.305912 0.039855 0.134459
H10   H     H_    0.723461 0.367185 0.959501 0.157590
H11   H     H_    0.629230 0.071803 0.213040 0.246677
H12   H     H_    0.559125 0.557503 0.894845 0.218537
H13   H     H_    0.802832 0.189421 0.283967 0.130836
H14   H     H_    0.791163 0.055250 0.390542 0.144592
H15   H     H_    0.740232 0.202916 0.454298 0.148954
H16   H     H_    0.405676 0.337016 0.125950 0.145382
H17   H     H_    0.532814 0.575587 0.106701 0.213935
H18   H     H_    0.196725 0.619884 0.752861 0.158238
H19   H     H_    0.085392 0.602433 0.966667 0.119852
H20   H     H_    0.803196 0.397772 0.760374 0.143047
H21   H     H_    0.883726 0.467522 0.287627 0.144191
H22   H     H_    0.505985 0.891074 0.290927 0.143050
I1    I     I_    0.336883 0.071224 0.626967 -0.447305
N1    N     N_2   0.498640 0.498660 0.846910 -0.357562
N2    N     N_2   0.498610 0.498630 0.153040 -0.355656
N3    N     N_2   0.113175 0.491858 0.242651 -0.527913
N4    N     N_2   0.864752 0.496256 0.003090 -0.525545
N5    N     N_2   0.624882 0.117968 0.305943 -0.499395
O1    O     O_R   0.500020 0.321960 0.617040 -0.492188
O2    O     O_R   0.499980 0.321920 0.382900 -0.473376
O3    O     O_R   0.319670 0.500020 0.617100 -0.500938
O4    O     O_R   0.319630 0.499980 0.382950 -0.495663
O5    O     O_R   0.500020 0.678080 0.617100 -0.488894
O6    O     O_R   0.499980 0.678040 0.382960 -0.500380
O7    O     O_R   0.680370 0.500020 0.617050 -0.507927
O8    O     O_R   0.680330 0.499980 0.382900 -0.503831

loop_
_geom_bond_atom_site_label_1
_geom_bond_atom_site_label_2
_ccdc_geom_bond_type
C4    O4    A    
C12   C17   A    
C1    O1    A    
Cu1   Cu2   S    
Cu1   O3    S    
H12   N1    S    
C9    C10   A    
C6    O5    A    
C15   H9    S    
C19   C20   A    
C8    H18   S    
Cu1   O7    S    
C14   H6    S    
C8    C12   A    
C10   N4    S    
C21   C22   D    
C3    C5    S    
C17   C18   A    
C3    N1    D    
C19   H21   S    
Cu2   O8    S    
C15   N4    S    
C4    O3    A    
C11   C13   A    
Cu2   O4    S    
C16   H15   S    
C4    C17   S    
C15   H10   S    
H17   N2    S    
C18   N3    S    
C23   N5    S    
C22   H2    S    
C21   C23   S    
C14   N3    S    
C1    O2    A    
H3    N3    S    
C5    N2    D    
C11   H20   S    
C10   C11   A    
C14   H4    S    
Cu1   O1    S    
C6    C22   S    
H7    N4    S    
C7    O7    A    
Cu1   N1    S    
C12   C13   A    
Cu1   O5    S    
C1    C2    S    
C16   H13   S    
C2    C23   D    
C3    H1    S    
C5    H16   S    
Cu2   N2    S    
C18   C19   A    
C9    H19   S    
Cu2   O6    S    
H11   N5    S    
C16   H14   S    
C13   C20   A    
C2    I1    S    
C14   H5    S    
C6    O6    A    
C7    C20   S    
C16   N5    S    
C7    O8    A    
Cu2   O2    S    
C15   H8    S    
C8    C9    A    
C21   H22   S    
