data_mof_unit_pretest_18.cif
_audit_creation_date              2012-12-10T18:35:28-0500
_audit_creation_method            fapswitch 2.2
_symmetry_space_group_name_H-M    P1
_symmetry_Int_Tables_number       1
_space_group_crystal_system       triclinic
_cell_length_a                    14.853714
_cell_length_b                    15.393299
_cell_length_c                    16.829574
_cell_angle_alpha                 92.113984
_cell_angle_beta                  98.829519
_cell_angle_gamma                 98.190124
_cell_volume                      3756.86248847

loop_
_atom_site_label
_atom_site_type_symbol
_atom_type_description
_atom_site_fract_x
_atom_site_fract_y
_atom_site_fract_z
_atom_type_partial_charge
C1    C     C_R   0.557743 0.662563 0.510751 0.862628
C2    C     C_R   0.459144 0.185206 0.457262 -0.268717
C3    C     C_R   0.546083 0.896006 0.477059 0.083284
C4    C     C_R   0.432290 0.094768 0.458973 0.077350
C5    C     C_R   0.632789 0.924817 0.452531 0.020252
C6    C     C_R   0.344302 0.063041 0.479995 0.020615
C7    C     C_R   0.474967 0.948827 0.468274 0.032193
C8    C     C_R   0.495000 0.035858 0.447264 0.034760
C9    C     C_R   0.576017 0.060366 0.414131 -0.213703
C10   C     C_R   0.382739 0.915779 0.474591 -0.218553
C11   C     C_R   0.641683 0.003768 0.411529 -0.038186
C12   C     C_R   0.442134 0.337548 0.487798 0.873927
C13   C     C_R   0.315722 0.971062 0.473360 -0.016584
C14   C     C_R   0.169421 0.647488 0.393705 -0.260173
C15   C     C_R   0.838814 0.379063 0.631229 -0.332093
C16   C     C_R   0.512796 0.499651 0.350123 0.846652
C17   C     C_R   0.489156 0.505382 0.650583 0.843026
C18   C     C_R   0.247573 0.606857 0.393990 0.236716
C19   C     C_R   0.748762 0.379772 0.593168 0.255983
C20   C     C_R   0.213849 0.529503 0.508340 -0.097702
C21   C     C_R   0.797537 0.508547 0.527613 -0.089024
C22   C     C_R   0.127692 0.561115 0.503243 -0.017635
C23   C     C_R   0.592834 0.755228 0.505810 -0.097005
C24   C     C_R   0.891564 0.502018 0.556164 -0.004597
C25   C     C_R   0.108409 0.623478 0.446141 0.164046
C26   C     C_R   0.910279 0.437426 0.611155 0.151129
C27   C     C_R   0.057709 0.528908 0.548274 0.094816
C28   C     C_R   0.967159 0.552219 0.528037 0.091117
C29   C     C_R   0.954788 0.621063 0.476702 -0.254367
C30   C     C_R   0.073371 0.470353 0.609322 -0.236745
C31   C     C_R   0.025197 0.657039 0.437350 -0.153422
C32   C     C_R   0.000557 0.426349 0.641116 -0.201595
C33   C     C_R   0.528257 0.518381 0.269415 -0.011599
C34   C     C_R   0.404598 0.244395 0.479666 -0.087702
C35   C     C_R   0.488840 0.526243 0.735521 -0.036055
C36   C     C_R   0.455503 0.500894 0.205328 -0.228013
C37   C     C_R   0.560758 0.507707 0.793178 -0.215210
C38   C     C_R   0.467670 0.529332 0.130094 -0.158303
C39   C     C_R   0.566677 0.537207 0.872813 -0.140209
C40   C     C_R   0.552431 0.577394 0.118808 0.203636
C41   C     C_R   0.501138 0.586808 0.895742 0.205797
C42   C     C_R   0.625959 0.592440 0.182683 -0.177673
C43   C     C_R   0.428497 0.604066 0.838175 -0.182869
C44   C     C_R   0.613969 0.563078 0.257889 -0.189919
C45   C     C_R   0.704278 0.870957 0.467597 0.096769
C46   C     C_R   0.422160 0.573903 0.758516 -0.195240
C47   C     C_2   0.568648 0.602226 0.038624 -0.236547
C48   C     C_2   0.498339 0.609179 0.980544 -0.238436
C49   C     C_3   0.683768 0.295065 0.596291 -0.359346
C50   C     C_3   0.629197 0.295044 0.666700 -0.333317
C51   C     C_3   0.582469 0.202581 0.678805 -0.897282
C52   C     C_3   0.292448 0.617543 0.319088 -0.386652
C53   C     C_3   0.370879 0.695762 0.327080 -0.282379
C54   C     C_3   0.387173 0.728312 0.245138 -0.909649
C55   C     C_2   0.709049 0.022613 0.355323 0.362035
C56   C     C_R   0.290368 0.124711 0.507396 0.093626
C57   C     C_2   0.217121 0.931346 0.453306 0.339358
C58   C     C_3   0.806151 0.903926 0.467946 -0.462720
C59   C     C_3   0.867773 0.884316 0.545440 -0.326766
C60   C     C_3   0.968231 0.924245 0.546257 -0.858128
C61   C     C_3   0.209905 0.099899 0.552917 -0.457010
C62   C     C_3   0.224844 0.147987 0.636848 -0.329171
C63   C     C_3   0.147776 0.115161 0.683815 -0.883655
C64   C     C_R   0.679782 0.783375 0.486340 -0.207597
C65   C     C_R   0.319048 0.214656 0.501062 -0.201228
C66   C     C_R   0.531898 0.814519 0.510074 -0.260170
H1    H     H_    0.389445 0.465530 0.213560 0.139818
H2    H     H_    0.854198 0.327066 0.670728 0.144113
H3    H     H_    0.890746 0.647145 0.464568 0.130133
H4    H     H_    0.141043 0.455861 0.632490 0.135486
H5    H     H_    0.366211 0.589666 0.714813 0.160833
H6    H     H_    0.670601 0.577857 0.307594 0.143402
H7    H     H_    0.431972 0.618653 0.996283 0.147250
H8    H     H_    0.637979 0.603596 0.025173 0.147842
H9    H     H_    0.692298 0.627186 0.174391 0.127660
H10   H     H_    0.376081 0.640128 0.855057 0.130592
H11   H     H_    0.621166 0.518418 0.915937 0.127037
H12   H     H_    0.612689 0.470745 0.776776 0.149527
H13   H     H_    0.411014 0.512044 0.080928 0.133030
H14   H     H_    0.525005 0.211856 0.442394 0.148109
H15   H     H_    0.470701 0.793476 0.535801 0.161376
H16   H     H_    0.277908 0.262397 0.518959 0.148995
H17   H     H_    0.728516 0.737333 0.486226 0.141317
H18   H     H_    0.534793 0.175254 0.623402 0.278659
H19   H     H_    0.634769 0.158416 0.694064 0.264733
H20   H     H_    0.542172 0.205096 0.729007 0.249447
H21   H     H_    0.676171 0.320705 0.723163 0.207709
H22   H     H_    0.574901 0.336940 0.655360 0.255798
H23   H     H_    0.585093 0.120272 0.383020 0.186832
H24   H     H_    0.641089 0.275534 0.537531 0.215233
H25   H     H_    0.725075 0.240068 0.603784 0.177372
H26   H     H_    0.402586 0.674260 0.206421 0.277642
H27   H     H_    0.325440 0.753979 0.214665 0.260895
H28   H     H_    0.446649 0.782239 0.253453 0.257690
H29   H     H_    0.353951 0.751166 0.363150 0.219775
H30   H     H_    0.436032 0.676879 0.356998 0.253549
H31   H     H_    0.311087 0.555289 0.297454 0.210884
H32   H     H_    0.238838 0.629088 0.268225 0.169272
H33   H     H_    0.738388 0.969561 0.329710 0.064128
H34   H     H_    0.359966 0.846030 0.474068 0.179875
H35   H     H_    0.165710 0.971304 0.429741 0.066715
H36   H     H_    0.994676 0.896634 0.493997 0.275769
H37   H     H_    0.974794 0.996862 0.543879 0.255609
H38   H     H_    0.011047 0.908675 0.602494 0.255601
H39   H     H_    0.843299 0.912070 0.598772 0.230070
H40   H     H_    0.865132 0.812327 0.550553 0.220451
H41   H     H_    0.828299 0.872805 0.414981 0.194522
H42   H     H_    0.818622 0.976228 0.464967 0.216882
H43   H     H_    0.080088 0.126141 0.650637 0.261795
H44   H     H_    0.146120 0.043947 0.693284 0.265154
H45   H     H_    0.012109 0.707393 0.395484 0.150612
H46   H     H_    0.159822 0.151628 0.743571 0.249164
H47   H     H_    0.291824 0.136799 0.671441 0.230541
H48   H     H_    0.226118 0.219812 0.631785 0.213440
H49   H     H_    0.145686 0.115228 0.516561 0.201606
H50   H     H_    0.200036 0.029363 0.564379 0.219965
H51   H     H_    0.014603 0.378592 0.685419 0.142876
H52   H     H_    0.777683 0.559458 0.489410 0.128099
H53   H     H_    0.235505 0.485375 0.553104 0.135901
H54   H     H_    0.152266 0.692876 0.347832 0.157082
N1    N     N_R   0.271750 0.551950 0.454510 -0.106434
N2    N     N_R   0.728250 0.448050 0.545490 -0.105370
O1    O     O_R   0.615140 0.606020 0.522930 -0.616142
O2    O     O_2   0.192260 0.853658 0.461973 -0.592363
O3    O     O_R   0.384860 0.393980 0.477070 -0.611018
O4    O     O_R   0.468580 0.639400 0.493740 -0.617943
O5    O     O_R   0.531420 0.360600 0.506260 -0.622482
O6    O     O_R   0.581950 0.481350 0.400520 -0.610659
O7    O     O_R   0.418050 0.518650 0.599480 -0.622162
O8    O     O_R   0.435380 0.514730 0.371330 -0.629766
O9    O     O_R   0.564620 0.485270 0.628670 -0.622023
O10   O     O_2   0.731396 0.097317 0.335879 -0.568547
Zn1   Zn    Zn3+2 0.597860 0.477710 0.519490 0.937356
Zn2   Zn    Zn3+2 0.402140 0.522290 0.480510 0.932913

loop_
_geom_bond_atom_site_label_1
_geom_bond_atom_site_label_2
_ccdc_geom_bond_type
O3    Zn2   S    
C25   C31   A    
C40   C47   S    
C30   C32   A    
C19   N2    A    
C26   C32   A    
C53   H29   S    
C14   C18   A    
C32   H51   S    
C4    C8    A    
C51   H19   S    
C36   H1    S    
C18   C52   S    
C7    C8    A    
C39   C41   A    
C12   O5    A    
C53   C54   S    
C15   C19   A    
C42   H9    S    
C62   C63   S    
O1    Zn1   S    
C39   H11   S    
C23   C66   A    
C28   C29   A    
C35   C37   A    
C24   C26   A    
C62   H48   S    
C3    C7    A    
C17   O9    A    
C38   H13   S    
C56   C65   A    
C52   H31   S    
C21   N2    A    
C33   C36   A    
C51   H20   S    
C58   H41   S    
C7    C10   A    
C63   H46   S    
C54   H27   S    
C8    C9    A    
C22   C25   A    
C61   H49   S    
N1    Zn2   S    
C60   H37   S    
C16   O8    A    
C49   H24   S    
C50   H22   S    
C2    C34   A    
C40   C42   A    
C59   C60   S    
C53   H30   S    
C41   C43   A    
O8    Zn2   S    
C42   C44   A    
C49   H25   S    
C60   H36   S    
C34   C65   A    
C30   H4    S    
C29   H3    S    
C45   C58   S    
C59   H40   S    
C17   O7    A    
O5    Zn1   S    
C1    O4    A    
C62   H47   S    
C4    C6    A    
C9    H23   S    
C27   C30   A    
C15   C26   A    
C12   O3    A    
C3    C5    A    
C58   C59   S    
N2    Zn1   S    
C5    C45   A    
C63   H43   S    
C2    C4    A    
C1    O1    A    
C64   H17   S    
C54   H26   S    
C21   H52   S    
C16   C33   S    
C9    C11   A    
C19   C49   S    
C47   C48   D    
C55   O10   D    
C61   H50   S    
C57   O2    D    
C50   C51   S    
C46   H5    S    
C59   H39   S    
C10   H34   S    
C16   O6    A    
C20   N1    A    
C50   H21   S    
C23   C64   A    
C20   C22   A    
C1    C23   S    
C14   H54   S    
C22   C27   A    
C3    C66   A    
C12   C34   S    
C11   C55   S    
C52   C53   S    
C43   H10   S    
C33   C44   A    
C48   H7    S    
C24   C28   A    
C47   H8    S    
C6    C56   A    
O9    Zn1   S    
C10   C13   A    
C5    C11   A    
C57   H35   S    
C37   H12   S    
C45   C64   A    
C63   H44   S    
C36   C38   A    
C37   C39   A    
O6    Zn1   S    
C6    C13   A    
C38   C40   A    
C65   H16   S    
C15   H2    S    
C52   H32   S    
C41   C48   S    
C44   H6    S    
C58   H42   S    
C14   C25   A    
C61   C62   S    
C43   C46   A    
C54   H28   S    
C2    H14   S    
C18   N1    A    
O7    Zn2   S    
C13   C57   S    
O4    Zn2   S    
C29   C31   A    
C49   C50   S    
C21   C24   A    
C55   H33   S    
C27   C28   A    
C31   H45   S    
C56   C61   S    
C17   C35   S    
C60   H38   S    
C35   C46   A    
C51   H18   S    
C20   H53   S    
C66   H15   S    
