data_mof_unit_pretest_466.cif
_audit_creation_date              2012-12-11T21:12:10-0500
_audit_creation_method            fapswitch 2.2
_symmetry_space_group_name_H-M    P1
_symmetry_Int_Tables_number       1
_space_group_crystal_system       triclinic
_cell_length_a                    8.303159
_cell_length_b                    18.795384
_cell_length_c                    26.929744
_cell_angle_alpha                 99.88766
_cell_angle_beta                  92.412745
_cell_angle_gamma                 88.382945
_cell_volume                      4135.64805258

loop_
_atom_site_label
_atom_site_type_symbol
_atom_type_description
_atom_site_fract_x
_atom_site_fract_y
_atom_site_fract_z
_atom_type_partial_charge
Ba1   Ba    Ba6+2 0.160810 0.465630 0.521640 1.656394
Ba2   Ba    Ba6+2 0.649380 0.534380 0.478400 1.693111
C1    C     C_3   0.353595 0.290587 0.700368 -0.302596
C2    C     C_3   0.420101 0.305339 0.651131 0.420607
C3    C     C_3   0.473856 0.313426 0.396139 0.367911
C4    C     C_3   0.503051 0.233261 0.376670 0.241552
C5    C     C_3   0.843434 0.729920 0.376421 0.434110
C6    C     C_3   0.813189 0.802842 0.360046 -0.312285
C7    C     C_3   0.335924 0.716715 0.352264 0.746811
C8    C     C_3   0.248456 0.778521 0.331790 -0.318377
C9    C     C_R   0.990365 0.047789 0.474578 -0.002631
C10   C     C_R   0.066127 0.095666 0.448258 -0.073161
C11   C     C_R   0.205592 0.952806 0.457707 -0.094648
C12   C     C_3   0.963240 0.276698 0.619516 0.339423
C13   C     C_R   0.053292 0.976691 0.476430 0.019963
C14   C     C_R   0.262342 0.882449 0.457724 -0.102173
C15   C     C_R   0.169578 0.832047 0.475896 -0.033923
C16   C     C_R   0.021946 0.855532 0.498365 0.002170
C17   C     C_R   0.964197 0.928284 0.499172 0.026198
C18   C     C_R   0.220551 0.758985 0.472779 -0.032838
C19   C     C_R   0.122830 0.710058 0.490421 -0.256963
C20   C     C_R   0.983372 0.732819 0.516314 0.074044
C21   C     C_R   0.934275 0.806892 0.521334 -0.041394
C22   C     C_R   0.843718 0.071311 0.498104 0.028406
C23   C     C_3   0.954804 0.201010 0.632036 -0.360642
C24   C     C_R   0.784762 0.143788 0.498520 0.007324
C25   C     C_R   0.872549 0.192572 0.475719 -0.058870
C26   C     C_R   0.007557 0.165800 0.448484 -0.002469
C27   C     C_R   0.802333 0.834423 0.549526 -0.023622
C28   C     C_R   0.744106 0.904579 0.549997 -0.090231
C29   C     C_R   0.818460 0.952053 0.523081 0.011741
C30   C     C_R   0.755455 0.023053 0.521235 0.021615
C31   C     C_R   0.603919 0.046952 0.540516 -0.104355
C32   C     C_R   0.637232 0.167231 0.521299 -0.017841
C33   C     C_R   0.546721 0.117184 0.540583 -0.077446
C34   C     C_3   0.830667 0.630638 0.634288 0.281803
C35   C     C_R   0.584247 0.239963 0.523804 0.020886
C36   C     C_R   0.679232 0.288527 0.504856 -0.305003
C37   C     C_R   0.821300 0.266241 0.480368 0.018856
C38   C     C_R   0.269287 0.447453 0.169844 0.605158
C39   C     C_R   0.237743 0.576213 0.178903 0.646379
C40   C     C_2   0.066396 0.555054 0.271858 -0.051317
C41   C     C_3   0.056369 0.576656 0.328333 -0.045449
C42   C     C_1   0.282071 0.491461 0.335872 -0.002954
C43   C     C_2   0.313673 0.486166 0.287467 -0.014324
C44   C     C_2   0.197406 0.517440 0.252315 0.242444
C45   C     C_3   0.813802 0.657621 0.690601 -0.370896
C46   C     C_R   0.316105 0.507282 0.098107 -0.085877
C47   C     C_R   0.312552 0.443630 0.119149 -0.027290
C48   C     C_R   0.352847 0.377521 0.089147 -0.037597
C49   C     C_R   0.279122 0.573855 0.128372 -0.079451
C50   C     C_2   0.162598 0.531387 0.357916 -0.279841
C51   C     C_2   0.652712 0.475044 0.637576 -0.300488
C52   C     C_R   0.458394 0.435466 0.967755 0.020911
C53   C     C_R   0.373540 0.562781 0.972560 0.018299
C54   C     C_R   0.435753 0.497594 0.944709 0.054568
C55   C     C_R   0.531976 0.373412 0.939685 -0.100806
C56   C     C_3   0.964564 0.380701 0.368771 0.346224
C57   C     C_R   0.575885 0.371890 0.890094 -0.059253
C58   C     C_R   0.546068 0.431720 0.866044 -0.029959
C59   C     C_R   0.473825 0.494410 0.893151 -0.080326
C60   C     C_R   0.438958 0.553933 0.868773 -0.032291
C61   C     C_R   0.481347 0.550976 0.818251 0.591332
C62   C     C_R   0.587102 0.430216 0.815464 0.579090
C63   C     C_2   0.753414 0.474213 0.726274 -0.090556
C64   C     C_3   0.799292 0.479871 0.673248 -0.045621
C65   C     C_1   0.517612 0.506925 0.654540 0.067956
C66   C     C_2   0.475220 0.504958 0.701276 -0.106297
C67   C     C_3   0.962534 0.364563 0.311325 0.244138
C68   C     C_2   0.598991 0.488080 0.740174 0.189699
C69   C     C_R   0.406136 0.437406 0.017762 0.025794
C70   C     C_R   0.358187 0.504464 0.046933 0.036004
C71   C     C_R   0.354420 0.568820 0.025598 -0.001411
C72   C     C_R   0.399438 0.374413 0.039699 -0.096522
C73   C     C_R   0.292816 0.637476 0.108584 -0.015916
C74   C     C_R   0.324351 0.618239 0.945612 -0.113979
C75   C     C_R   0.359317 0.614647 0.895135 -0.058824
C76   C     C_R   0.335419 0.636275 0.058908 0.118094
C77   C     C_3   0.386311 0.696329 0.603213 0.390231
C78   C     C_3   0.477103 0.766098 0.620608 -0.320278
H1    H     H_    0.375317 0.359914 0.645975 0.070473
H2    H     H_    0.744748 0.709606 0.696865 0.141074
H3    H     H_    0.748203 0.618696 0.708252 0.086429
H4    H     H_    0.935013 0.665941 0.709432 0.116947
H5    H     H_    0.086106 0.398056 0.383203 -0.086220
H6    H     H_    0.876367 0.425149 0.380545 0.064232
H7    H     H_    0.050132 0.320142 0.298472 0.127965
H8    H     H_    0.996440 0.413188 0.296425 -0.031347
H9    H     H_    0.428264 0.671326 0.565449 0.082969
H10   H     H_    0.220367 0.290363 0.697827 0.131195
H11   H     H_    0.430819 0.795439 0.656752 0.109722
H12   H     H_    0.462505 0.801584 0.591643 0.077054
H13   H     H_    0.606229 0.753573 0.627038 0.116865
H14   H     H_    0.390004 0.333597 0.732140 0.106787
H15   H     H_    0.592227 0.337330 0.409199 -0.059215
H16   H     H_    0.392882 0.319480 0.428468 0.032982
H17   H     H_    0.588776 0.226325 0.345554 0.132215
H18   H     H_    0.555841 0.206644 0.407493 -0.039951
H19   H     H_    0.399122 0.237450 0.708448 0.130657
H20   H     H_    0.834437 0.192647 0.646277 0.145462
H21   H     H_    0.791621 0.731751 0.413986 0.071116
H22   H     H_    0.976036 0.721246 0.379839 -0.157326
H23   H     H_    0.682008 0.814959 0.356994 0.158752
H24   H     H_    0.870156 0.845918 0.388170 0.056136
H25   H     H_    0.866009 0.802599 0.322820 0.121258
H26   H     H_    0.245531 0.683854 0.366682 -0.109839
H27   H     H_    0.160457 0.756696 0.301122 0.129489
H28   H     H_    0.336019 0.812275 0.316759 0.143042
H29   H     H_    0.080895 0.282551 0.603235 0.106404
H30   H     H_    0.181711 0.812858 0.362097 0.043178
H31   H     H_    0.162085 0.654123 0.487188 0.065987
H32   H     H_    0.379544 0.868094 0.442573 0.105111
H33   H     H_    0.070685 0.198678 0.426926 0.159193
H34   H     H_    0.741651 0.801980 0.571567 0.095346
H35   H     H_    0.429752 0.131310 0.555922 0.117219
H36   H     H_    0.639284 0.344346 0.507874 0.071912
H37   H     H_    0.286272 0.987762 0.443471 0.081928
H38   H     H_    0.170246 0.080159 0.426028 0.112776
H39   H     H_    0.641763 0.920426 0.572970 0.061000
H40   H     H_    0.867214 0.282617 0.590669 -0.005500
H41   H     H_    0.523947 0.012038 0.555083 0.072462
H42   H     H_    0.425917 0.461036 0.273369 0.140946
H43   H     H_    0.349546 0.327522 0.103960 0.138627
H44   H     H_    0.847043 0.464966 0.753966 0.105859
H45   H     H_    0.632802 0.323094 0.870460 0.123978
H46   H     H_    0.561495 0.325598 0.955598 0.075755
H47   H     H_    0.425484 0.321280 0.018979 0.076125
H48   H     H_    0.980201 0.578621 0.247568 0.109270
H49   H     H_    0.277243 0.689577 0.132581 0.145674
H50   H     H_    0.253109 0.664062 0.962456 0.079602
H51   H     H_    0.974697 0.160441 0.597575 0.079130
H52   H     H_    0.322471 0.659692 0.876691 0.123294
H53   H     H_    0.352939 0.519016 0.712425 0.134455
H54   H     H_    0.157466 0.543094 0.398730 0.071455
H55   H     H_    0.662100 0.451609 0.598012 0.081152
H56   H     H_    0.048972 0.192783 0.661091 0.125753
H57   H     H_    0.712154 0.612800 0.617257 0.025807
H58   H     H_    0.919569 0.585032 0.628665 0.046776
N1    N     N_R   0.232887 0.513383 0.199299 -0.429721
N2    N     N_R   0.555080 0.489613 0.792116 -0.424484
O1    O     O_2   0.106080 0.324280 0.466820 -0.453573
O2    O     O_3   0.411657 0.651476 0.639417 -0.633684
O3    O     O_3   0.943202 0.328446 0.663365 -0.601633
O4    O     O_2   0.704230 0.675760 0.533200 -0.478383
O5    O     O_3   0.951180 0.586390 0.529420 -0.492920
O6    O     O_3   0.434080 0.629720 0.443130 -0.457168
O7    O     O_3   0.884290 0.687714 0.612978 -0.648571
O8    O     O_3   0.351080 0.462080 0.440130 -0.485926
O9    O     O_3   0.839200 0.593040 0.416790 -0.496374
O10   O     O_2   0.727734 0.535498 0.324378 -0.423454
O11   O     O_3   0.769872 0.675426 0.340947 -0.519725
O12   O     O_3   0.859130 0.413620 0.470620 -0.493671
O13   O     O_3   0.459240 0.537930 0.559910 -0.495451
O14   O     O_2   0.583120 0.462390 0.379940 -0.429742
O15   O     O_3   0.403491 0.346302 0.357186 -0.588429
O16   O     O_2   0.555854 0.757286 0.482040 -0.499772
O17   O     O_3   0.455860 0.744596 0.388356 -0.606834
O18   O     O_2   0.263065 0.392028 0.187632 -0.562773
O19   O     O_2   0.650342 0.375816 0.792101 -0.603896
O20   O     O_2   0.208117 0.634613 0.205001 -0.559437
O21   O     O_2   0.455037 0.603592 0.797776 -0.596034
O22   O     O_3   0.376230 0.370290 0.556910 -0.490965
O23   O     O_2   0.249701 0.243031 0.519558 -0.494542
O24   O     O_3   0.926255 0.317939 0.386832 -0.609294
O25   O     O_3   0.365021 0.251511 0.611558 -0.612779
O26   O     O_2   0.227190 0.537650 0.620070 -0.477399
O27   O     O_3   0.971110 0.406970 0.583250 -0.491191
O28   O     O_2   0.129413 0.439846 0.670722 -0.509401
P1    P     P_3+3 0.929380 0.335110 0.452880 1.000445
P2    P     P_3+3 0.398530 0.559060 0.613740 0.981559
P3    P     P_3+3 0.961674 0.415070 0.648379 0.942877
P4    P     P_3+3 0.880940 0.664900 0.547160 0.962784
P5    P     P_3+3 0.847680 0.591906 0.351988 1.025068
P6    P     P_3+3 0.394078 0.276414 0.552567 0.927518
P7    P     P_3+3 0.401308 0.440046 0.376709 1.018244
P8    P     P_3+3 0.415741 0.723343 0.447351 0.951249
Cl1   Cl    Cl    0.766005 0.339439 0.286356 -0.607348
N3    N     N_3   0.216371 0.713611 0.599590 -0.530796
H59   H     H_    0.178019 0.738386 0.635076 0.197388
H60   H     H_    0.163168 0.663415 0.592241 0.178888
N4    N     N_3   0.595777 0.303225 0.654843 -0.474715
H61   H     H_    0.634022 0.336734 0.688030 0.204771
H62   H     H_    0.636332 0.327072 0.625620 0.113550
Cl2   Cl    Cl    0.319246 0.190265 0.354060 -0.654437
Cl3   Cl    Cl    0.431112 0.660269 0.301648 -0.615000
N5    N     N_3   0.384705 0.703939 0.047209 -0.496048
H63   H     H_    0.475202 0.696791 0.020892 0.191921
H64   H     H_    0.284481 0.732312 0.035297 0.179456

loop_
_geom_bond_atom_site_label_1
_geom_bond_atom_site_label_2
_ccdc_geom_bond_type
C12   H29   S    
C27   H34   S    
C68   N2    S    
O11   P5    S    
C32   C35   A    
Ba2   O4    S    
C61   N2    Am   
Ba1   P2    S    
C60   C75   A    
C8    H28   S    
C51   H55   S    
C42   P7    S    
C53   C54   A    
C56   O24   S    
C6    H25   S    
N3    H59   S    
O24   P1    S    
C5    C6    S    
C18   P8    S    
C43   C44   S    
O7    P4    S    
Ba2   O5    S    
C13   C17   A    
C24   C25   A    
C27   C28   A    
O14   P7    D    
C10   C26   A    
C1    H10   S    
C4    H18   S    
C38   O18   D    
C66   H53   S    
C35   C36   A    
C22   C24   A    
Ba1   Ba2   S    
C7    Cl3   S    
C48   C72   A    
C36   C37   A    
C41   C50   S    
C45   H2    S    
C77   O2    S    
C28   H39   S    
Ba1   O27   S    
Ba2   O8    S    
C38   C47   A    
C38   N1    Am   
C9    C22   A    
C15   C18   A    
C50   H54   S    
C2    O25   S    
Ba1   O12   S    
C32   C33   A    
C40   C44   D    
C63   H44   S    
C47   C48   A    
C23   H56   S    
C23   H20   S    
C67   Cl1   S    
C35   P6    S    
C9    C13   A    
C24   C32   A    
O28   P3    D    
C52   C69   A    
C29   C30   A    
C25   C37   A    
C14   C15   A    
C5    H22   S    
O6    P8    S    
O13   P2    S    
C71   C76   A    
C33   H35   S    
C76   N5    S    
C45   H3    S    
C2    N4    S    
C7    C8    S    
C67   H7    S    
C40   H48   S    
O2    P2    S    
C42   C50   D    
Ba2   O9    S    
O5    P4    S    
C17   C29   A    
C57   C58   A    
Ba2   O14   S    
C19   C20   A    
C31   H41   S    
C8    H27   S    
C74   H50   S    
C46   C70   A    
C56   H6    S    
C73   C76   A    
C3    H15   S    
N4    H62   S    
C65   P2    S    
Ba2   O12   S    
C52   C54   A    
C46   C49   A    
O8    P7    S    
C77   H9    S    
C2    H1    S    
C16   C21   A    
C4    H17   S    
C64   P3    S    
Ba1   O1    S    
C74   C75   A    
C55   H46   S    
C16   C17   A    
O27   P3    S    
C7    H26   S    
N4    H61   S    
C73   H49   S    
C65   C66   D    
C4    Cl2   S    
C58   C59   A    
C75   H52   S    
C78   H12   S    
C22   C30   A    
C60   C61   A    
C39   O20   D    
C36   H36   S    
C19   H31   S    
C34   O7    S    
N3    H60   S    
C72   H47   S    
C7    O17   S    
C28   C29   A    
O1    P1    D    
C15   C16   A    
C77   N3    S    
C45   H4    S    
Ba1   O13   S    
C51   C64   S    
C6    H24   S    
C67   H8    S    
N5    H63   S    
C5    O11   S    
C53   C74   A    
C34   H57   S    
C46   C47   A    
Ba1   O22   S    
O26   P2    D    
Ba2   O13   S    
C12   H40   S    
C11   C13   A    
C5    H21   S    
C10   H38   S    
C34   C45   S    
Ba2   O6    S    
Ba1   O5    S    
N5    H64   S    
C1    C2    S    
C23   H51   S    
C56   H5    S    
C21   C27   A    
C3    H16   S    
C42   C43   D    
C14   H32   S    
C62   N2    Am   
O15   P7    S    
C61   O21   D    
C12   O3    S    
O16   P8    D    
C54   C59   A    
C48   H43   S    
C49   C73   A    
C70   C71   A    
C69   C72   A    
C11   H37   S    
C9    C10   A    
C56   C67   S    
O22   P6    S    
C43   H42   S    
C57   H45   S    
O4    P4    D    
C58   C62   A    
C30   C31   A    
C78   H11   S    
O25   P6    S    
O3    P3    S    
C69   C70   A    
C37   P1    S    
C3    O15   S    
O12   P1    S    
C41   P5    S    
C3    C4    S    
Ba1   O26   S    
C62   O19   D    
Ba1   P1    S    
C31   C33   A    
C8    H30   S    
C1    H14   S    
O9    P5    S    
C12   C23   S    
C59   C60   A    
C51   C65   D    
C6    H23   S    
C39   N1    Am   
C55   C57   A    
C26   H33   S    
O17   P8    S    
C77   C78   S    
C53   C71   A    
C1    H19   S    
O10   P5    D    
C18   C19   A    
C66   C68   S    
C63   C64   S    
C40   C41   S    
C11   C14   A    
C25   C26   A    
C20   C21   A    
Ba1   O8    S    
C78   H13   S    
O23   P6    D    
C34   H58   S    
C39   C49   A    
C20   P4    S    
C63   C68   D    
Ba2   P4    S    
C44   N1    S    
C52   C55   A    
