data_mof_unit_pretest_987.cif
_audit_creation_date              2012-12-10T20:23:14-0500
_audit_creation_method            fapswitch 2.2
_symmetry_space_group_name_H-M    P1
_symmetry_Int_Tables_number       1
_space_group_crystal_system       triclinic
_cell_length_a                    19.335165
_cell_length_b                    18.391922
_cell_length_c                    17.644779
_cell_angle_alpha                 89.999946
_cell_angle_beta                  90.044426
_cell_angle_gamma                 89.989451
_cell_volume                      6274.67280459

loop_
_atom_site_label
_atom_site_type_symbol
_atom_type_description
_atom_site_fract_x
_atom_site_fract_y
_atom_site_fract_z
_atom_type_partial_charge
C1    C     C_R   0.365594 0.500000 0.499823 0.867764
C2    C     C_R   0.963872 0.454829 0.450298 -0.186853
C3    C     C_R   0.071724 0.499832 0.500059 0.108315
C4    C     C_R   0.928245 0.499610 0.501207 0.108175
C5    C     C_R   0.538763 0.725799 0.551864 -0.046381
C6    C     C_R   0.460790 0.274367 0.448470 -0.025006
C7    C     C_R   0.461238 0.725813 0.448135 -0.046365
C8    C     C_R   0.539207 0.274349 0.551530 -0.025041
C9    C     C_R   0.539889 0.802359 0.553667 0.004403
C10   C     C_R   0.459638 0.197504 0.446390 0.011884
C11   C     C_R   0.460111 0.802373 0.446331 0.004295
C12   C     C_R   0.634406 0.499985 0.500212 0.867764
C13   C     C_R   0.540355 0.197486 0.553611 0.011978
C14   C     C_R   0.500000 0.841819 0.499999 0.033468
C15   C     C_R   0.499996 0.158603 0.500000 -0.002526
C16   C     C_R   0.443885 0.962075 0.530262 -0.211102
C17   C     C_R   0.555973 0.038341 0.469423 -0.195063
C18   C     C_R   0.556112 0.962055 0.469735 -0.211074
C19   C     C_R   0.444022 0.038361 0.530574 -0.194995
C20   C     C_R   0.499997 0.077193 0.499998 0.117058
C21   C     C_R   0.499999 0.923161 0.499999 0.151688
C22   C     C_R   0.499538 0.500076 0.353358 0.893745
C23   C     C_R   0.853151 0.499712 0.501532 0.119691
C24   C     C_R   0.500461 0.500076 0.646641 0.893734
C25   C     C_R   0.496234 0.568831 0.846731 0.111926
C26   C     C_R   0.490629 0.435083 0.151929 0.114579
C27   C     C_R   0.503755 0.568829 0.153268 0.111971
C28   C     C_R   0.509347 0.435078 0.848072 0.114613
C29   C     C_R   0.495936 0.566784 0.767671 -0.220619
C30   C     C_R   0.491001 0.435461 0.231106 -0.220979
C31   C     C_R   0.504060 0.566782 0.232329 -0.220276
C32   C     C_R   0.508984 0.435456 0.768895 -0.220614
C33   C     C_R   0.501709 0.500662 0.729072 -0.112602
C34   C     C_R   0.146834 0.499887 0.499540 0.119799
C35   C     C_R   0.498285 0.500663 0.270929 -0.112631
C36   C     C_R   0.502222 0.502282 0.886085 0.064553
C37   C     C_R   0.497758 0.502283 0.113916 0.064554
C38   C     C_1   0.500683 0.502856 0.966395 -0.095992
C39   C     C_1   0.499293 0.502857 0.033605 -0.095994
C40   C     C_R   0.745549 0.433761 0.501585 -0.197020
C41   C     C_R   0.254339 0.566052 0.499475 -0.197064
C42   C     C_R   0.254426 0.433852 0.499274 -0.197144
C43   C     C_R   0.745681 0.565963 0.500672 -0.197329
C44   C     C_R   0.817171 0.433705 0.501902 -0.180794
C45   C     C_R   0.709493 0.499912 0.500797 -0.033495
C46   C     C_R   0.182712 0.565968 0.499517 -0.181307
C47   C     C_R   0.182803 0.433850 0.499300 -0.180232
C48   C     C_R   0.817309 0.565822 0.501059 -0.180810
C49   C     C_3   0.490088 0.640155 0.890701 -0.407737
C50   C     C_3   0.484853 0.709758 0.842753 -0.368540
C51   C     C_3   0.479812 0.777119 0.892917 -0.886724
C52   C     C_3   0.483731 0.364766 0.106391 -0.411454
C53   C     C_3   0.468716 0.295693 0.152430 -0.366552
C54   C     C_3   0.461656 0.229444 0.101003 -0.884834
C55   C     C_3   0.509903 0.640150 0.109298 -0.407742
C56   C     C_R   0.290505 0.499974 0.499506 -0.033536
C57   C     C_3   0.515144 0.709752 0.157246 -0.368406
C58   C     C_3   0.520185 0.777110 0.107081 -0.886557
C59   C     C_3   0.516234 0.364758 0.893610 -0.411428
C60   C     C_3   0.531243 0.295677 0.847573 -0.366447
C61   C     C_3   0.538290 0.229424 0.899002 -0.884763
C62   C     C_3   0.583122 0.839781 0.613698 -0.429341
C63   C     C_3   0.538348 0.864268 0.680692 -0.324937
C64   C     C_3   0.581803 0.902644 0.740809 -0.891201
C65   C     C_3   0.417001 0.155572 0.388247 -0.408137
C66   C     C_3   0.380842 0.201828 0.327619 -0.379155
C67   C     C_R   0.964458 0.544477 0.551569 -0.188634
C68   C     C_3   0.343488 0.154057 0.269900 -0.879228
C69   C     C_3   0.416879 0.839810 0.386297 -0.429217
C70   C     C_3   0.461655 0.864284 0.319306 -0.325009
C71   C     C_3   0.418199 0.902661 0.259178 -0.890919
C72   C     C_3   0.582986 0.155536 0.611757 -0.408434
C73   C     C_3   0.619128 0.201773 0.672399 -0.378963
C74   C     C_3   0.656467 0.153985 0.730127 -0.878292
C75   C     C_R   0.035496 0.454949 0.449714 -0.188475
C76   C     C_R   0.036087 0.544573 0.551012 -0.187070
H1    H     H_    0.490799 0.616338 0.735323 0.156376
H2    H     H_    0.155293 0.617343 0.498867 0.128985
H3    H     H_    0.155468 0.382438 0.500042 0.129710
H4    H     H_    0.844757 0.617164 0.500044 0.129213
H5    H     H_    0.937311 0.578661 0.591743 0.131449
H6    H     H_    0.062620 0.420808 0.409483 0.131653
H7    H     H_    0.063686 0.578787 0.590822 0.131987
H8    H     H_    0.936262 0.420623 0.410488 0.132404
H9    H     H_    0.568658 0.694788 0.592462 0.130111
H10   H     H_    0.430676 0.306454 0.409280 0.127512
H11   H     H_    0.431342 0.694813 0.407538 0.130250
H12   H     H_    0.485830 0.385406 0.262601 0.150946
H13   H     H_    0.569323 0.306423 0.590720 0.127560
H14   H     H_    0.400174 0.933219 0.554048 0.125990
H15   H     H_    0.599554 0.067204 0.445373 0.132020
H16   H     H_    0.599823 0.933184 0.445949 0.126082
H17   H     H_    0.400440 0.067240 0.554624 0.132131
H18   H     H_    0.434069 0.773297 0.930749 0.259532
H19   H     H_    0.527351 0.782947 0.927740 0.264643
H20   H     H_    0.474151 0.826230 0.856890 0.251774
H21   H     H_    0.531496 0.715128 0.806364 0.222444
H22   H     H_    0.437943 0.707414 0.806359 0.221107
H23   H     H_    0.509205 0.616333 0.264676 0.156403
H24   H     H_    0.443420 0.636854 0.927331 0.202813
H25   H     H_    0.536141 0.645188 0.928119 0.204107
H26   H     H_    0.419300 0.237733 0.059318 0.259289
H27   H     H_    0.510948 0.219479 0.070491 0.263487
H28   H     H_    0.449527 0.180770 0.135715 0.255292
H29   H     H_    0.511613 0.285120 0.192935 0.221742
H30   H     H_    0.419507 0.302976 0.184012 0.223397
H31   H     H_    0.440712 0.371819 0.065174 0.204144
H32   H     H_    0.532341 0.356502 0.073916 0.204146
H33   H     H_    0.565926 0.773268 0.069246 0.259543
H34   H     H_    0.514153 0.385399 0.737400 0.150966
H35   H     H_    0.472644 0.782959 0.072260 0.264629
H36   H     H_    0.525849 0.826218 0.143107 0.251792
H37   H     H_    0.468503 0.715142 0.193637 0.222506
H38   H     H_    0.562055 0.707388 0.193636 0.221281
H39   H     H_    0.556570 0.636828 0.072666 0.202830
H40   H     H_    0.463849 0.645204 0.071881 0.204135
H41   H     H_    0.580645 0.237689 0.940689 0.259260
H42   H     H_    0.488994 0.219486 0.929510 0.263519
H43   H     H_    0.550413 0.180743 0.864290 0.255284
H44   H     H_    0.488348 0.285127 0.807065 0.221842
H45   H     H_    0.718562 0.382152 0.502026 0.152952
H46   H     H_    0.580456 0.302932 0.815996 0.223497
H47   H     H_    0.559253 0.371789 0.934830 0.204128
H48   H     H_    0.467622 0.356520 0.926083 0.204200
H49   H     H_    0.621648 0.865082 0.763749 0.261937
H50   H     H_    0.607503 0.951253 0.716227 0.264137
H51   H     H_    0.548006 0.920625 0.788061 0.246317
H52   H     H_    0.497451 0.902186 0.661147 0.230598
H53   H     H_    0.512824 0.816176 0.706594 0.215358
H54   H     H_    0.623633 0.801995 0.635059 0.189259
H55   H     H_    0.611002 0.886867 0.588949 0.211495
H56   H     H_    0.281245 0.617707 0.499366 0.152889
H57   H     H_    0.380614 0.116842 0.241573 0.258910
H58   H     H_    0.302703 0.121389 0.298253 0.259666
H59   H     H_    0.318872 0.188893 0.226119 0.252298
H60   H     H_    0.342244 0.238332 0.354666 0.218356
H61   H     H_    0.419969 0.235084 0.297444 0.217284
H62   H     H_    0.451979 0.116745 0.358805 0.217751
H63   H     H_    0.377037 0.123545 0.418763 0.206467
H64   H     H_    0.378373 0.865099 0.236225 0.262119
H65   H     H_    0.392475 0.951268 0.283755 0.264130
H66   H     H_    0.452000 0.920645 0.211937 0.246259
H67   H     H_    0.281397 0.382221 0.499325 0.153117
H68   H     H_    0.502542 0.902197 0.338852 0.230617
H69   H     H_    0.487190 0.816184 0.293413 0.215428
H70   H     H_    0.376371 0.802039 0.364934 0.189600
H71   H     H_    0.388996 0.886906 0.411044 0.211498
H72   H     H_    0.619335 0.116783 0.758441 0.258662
H73   H     H_    0.697260 0.121303 0.701785 0.259756
H74   H     H_    0.681073 0.188809 0.773918 0.252565
H75   H     H_    0.657733 0.238265 0.645367 0.218779
H76   H     H_    0.579994 0.235043 0.702564 0.217237
H77   H     H_    0.548007 0.116715 0.641187 0.217805
H78   H     H_    0.718793 0.617635 0.500027 0.152976
H79   H     H_    0.622958 0.123500 0.581245 0.206470
H80   H     H_    0.844511 0.382290 0.503073 0.129715
N1    N     N_R   0.500000 0.689440 0.500000 -0.107603
N2    N     N_R   0.500000 0.310560 0.500000 -0.116762
O1    O     O_R   0.398180 0.560840 0.499980 -0.623173
O2    O     O_R   0.601820 0.439160 0.500020 -0.624242
O3    O     O_R   0.601820 0.560840 0.500020 -0.623127
O4    O     O_R   0.398180 0.439160 0.499980 -0.624193
O5    O     O_R   0.500000 0.560840 0.389110 -0.626691
O6    O     O_R   0.500000 0.439160 0.610890 -0.626356
O7    O     O_R   0.500000 0.560840 0.610890 -0.626812
O8    O     O_R   0.500000 0.439160 0.389110 -0.626460
Zn1   Zn    Zn3+2 0.500000 0.581210 0.500000 0.935452
Zn2   Zn    Zn3+2 0.500000 0.418790 0.500000 0.934541

loop_
_geom_bond_atom_site_label_1
_geom_bond_atom_site_label_2
_ccdc_geom_bond_type
C66   C68   S    
C16   H14   S    
C16   C21   A    
C61   H43   S    
C18   C21   A    
C73   C74   S    
C62   H54   S    
C71   H64   S    
C2    H8    S    
C19   C20   A    
C17   H15   S    
C47   H3    S    
C72   H77   S    
C8    N2    A    
N1    Zn1   S    
N2    Zn2   S    
C53   C54   S    
C7    C11   A    
C22   C35   S    
C28   C32   A    
C8    C13   A    
C32   H34   S    
C30   C35   A    
C58   H36   S    
C14   C21   S    
C74   H72   S    
C68   H57   S    
C1    C56   S    
C10   C15   A    
C49   H25   S    
C38   C39   T    
C11   C14   A    
C27   C55   S    
C10   C65   S    
C55   H40   S    
C58   H33   S    
C29   C33   A    
C17   C20   A    
C25   C29   A    
C42   C56   A    
C12   O3    A    
C53   H30   S    
C7    H11   S    
C52   H31   S    
C41   C46   A    
C74   H73   S    
C70   C71   S    
C34   C46   A    
C31   H23   S    
C43   H78   S    
C3    C75   A    
C43   C48   A    
C63   H52   S    
C19   H17   S    
C51   H20   S    
C71   H65   S    
C5    H9    S    
O2    Zn2   S    
C59   C60   S    
O7    Zn1   S    
C72   H79   S    
C73   H75   S    
O8    Zn2   S    
C69   H70   S    
C67   C76   A    
C24   O6    A    
C76   H7    S    
C6    N2    A    
C50   C51   S    
C59   H47   S    
C40   C45   A    
C50   H22   S    
C7    N1    A    
C27   C31   A    
C9    C62   S    
C44   H80   S    
C54   H27   S    
C1    O1    A    
C46   H2    S    
C4    C23   S    
C12   C45   S    
C57   H37   S    
C51   H18   S    
C3    C34   S    
C61   H41   S    
C23   C44   A    
C58   H35   S    
C15   C20   S    
C65   H63   S    
C2    C4    A    
C9    C14   A    
C41   C56   A    
C5    C9    A    
C62   C63   S    
C40   H45   S    
C26   C52   S    
C41   H56   S    
O6    Zn2   S    
O5    Zn1   S    
C64   H51   S    
C17   C18   A    
C26   C37   A    
C70   H69   S    
C12   O2    A    
C60   H46   S    
C3    C76   A    
C43   C45   A    
C28   C36   A    
O3    Zn1   S    
C71   H66   S    
C66   H60   S    
C65   H62   S    
C1    O4    A    
C26   C30   A    
C64   H49   S    
C5    N1    A    
C13   C15   A    
C73   H76   S    
C69   H71   S    
C31   C35   A    
C65   C66   S    
C30   H12   S    
C36   C38   S    
C52   C53   S    
C28   C59   S    
C54   H28   S    
C59   H48   S    
C50   H21   S    
C23   C48   A    
C61   H42   S    
C70   H68   S    
C62   H55   S    
C54   H26   S    
C68   H59   S    
C74   H74   S    
C72   C73   S    
C6    C10   A    
C4    C67   A    
C11   C69   S    
C75   H6    S    
C67   H5    S    
C57   H38   S    
C34   C47   A    
C13   C72   S    
C64   H50   S    
C24   C33   S    
C6    H10   S    
C18   H16   S    
C32   C33   A    
C48   H4    S    
C55   C57   S    
C24   O7    A    
C37   C39   S    
C49   H24   S    
C22   O5    A    
C57   C58   S    
C66   H61   S    
C55   H39   S    
C27   C37   A    
C16   C19   A    
C68   H58   S    
O1    Zn1   S    
C60   H44   S    
C42   C47   A    
C63   H53   S    
C69   C70   S    
C25   C49   S    
O4    Zn2   S    
C25   C36   A    
C63   C64   S    
C22   O8    A    
C53   H29   S    
C40   C44   A    
C29   H1    S    
C52   H32   S    
C49   C50   S    
C42   H67   S    
C60   C61   S    
C8    H13   S    
C2    C75   A    
C51   H19   S    
