data_mof_unit_pretest_1807.cif
_audit_creation_date              2013-03-05T15:59:27-0500
_audit_creation_method            fapswitch 2.2
_symmetry_space_group_name_H-M    P1
_symmetry_Int_Tables_number       1
_space_group_crystal_system       triclinic
_cell_length_a                    21.512153
_cell_length_b                    29.39923
_cell_length_c                    29.401689
_cell_angle_alpha                 90.025503
_cell_angle_beta                  90.023178
_cell_angle_gamma                 90.00228
_cell_volume                      18594.822389

loop_
_atom_site_label
_atom_site_type_symbol
_atom_site_description
_atom_site_fract_x
_atom_site_fract_y
_atom_site_fract_z
_atom_type_partial_charge
O1    O     O_R   0.000000 0.964120 0.061970 -0.574851
O2    O     O_R   0.000000 0.964120 0.938030 -0.602411
O3    O     O_R   0.500000 0.464120 0.561970 -0.578883
O4    O     O_R   0.500000 0.464120 0.438030 -0.578754
O5    O     O_R   0.000000 0.035860 0.061950 -0.533810
O6    O     O_R   0.000000 0.035860 0.938050 -0.547716
O7    O     O_R   0.500000 0.535860 0.561950 -0.544874
O8    O     O_R   0.500000 0.535860 0.438050 -0.544759
C1    C     C_R   0.999685 0.999999 0.085531 0.872281
C2    C     C_R   0.000041 0.999985 0.914466 0.828888
C3    C     C_R   0.499847 0.500015 0.585534 0.829920
C4    C     C_R   0.500162 0.499997 0.414466 0.829285
O9    O     O_R   0.091580 0.964120 0.000000 -0.576474
O10   O     O_R   0.908420 0.964120 0.000000 -0.596423
O11   O     O_R   0.591580 0.464120 0.500000 -0.583799
O12   O     O_R   0.408420 0.464120 0.500000 -0.584764
O13   O     O_R   0.091590 0.035860 0.000000 -0.517034
O14   O     O_R   0.908410 0.035860 0.000000 -0.507520
O15   O     O_R   0.591590 0.535860 0.500000 -0.512034
O16   O     O_R   0.408410 0.535860 0.500000 -0.511172
C5    C     C_R   0.121094 0.000002 0.997289 0.956007
C6    C     C_R   0.878786 0.000055 0.001529 0.977127
C7    C     C_R   0.621282 0.500249 0.500422 0.958514
C8    C     C_R   0.378716 0.500249 0.499571 0.957952
Cu1   Cu    Cu3+1 0.000000 0.957510 0.000000 0.985467
Cu2   Cu    Cu3+1 0.500000 0.457510 0.500000 1.019481
Cu3   Cu    Cu3+1 0.000000 0.042470 0.000000 1.172515
Cu4   Cu    Cu3+1 0.500000 0.542470 0.500000 1.171002
C9    C     C_3   0.227419 0.978226 0.035604 0.216179
C10   C     C_3   0.770967 0.005947 0.959009 0.291046
C11   C     C_3   0.769551 0.034647 0.028319 0.181350
C12   C     C_3   0.229707 0.042916 0.997860 0.245447
C13   C     C_3   0.729231 0.544317 0.510888 0.202509
C14   C     C_3   0.270844 0.544426 0.489363 0.207198
C15   C     C_3   0.270186 0.489829 0.541080 0.239213
C16   C     C_3   0.729804 0.489935 0.458894 0.253392
C17   C     C_3   0.268532 0.021524 0.036231 0.272463
C18   C     C_3   0.729288 0.039668 0.984982 0.281347
C19   C     C_3   0.770387 0.531912 0.469410 0.272375
C20   C     C_3   0.229672 0.531898 0.530792 0.276751
C21   C     C_3   0.311472 0.999851 0.000180 -0.363857
C22   C     C_3   0.688847 0.999514 0.000844 -0.340249
C23   C     C_3   0.811493 0.502084 0.500507 -0.360324
C24   C     C_3   0.188504 0.502231 0.499534 -0.365345
C25   C     C_3   0.271463 0.956568 0.999341 0.273159
C26   C     C_3   0.730585 0.965978 0.975148 0.301524
C27   C     C_3   0.728620 0.994073 0.044318 0.241762
C28   C     C_3   0.272424 0.020872 0.962270 0.321215
C29   C     C_3   0.771318 0.514463 0.542040 0.259099
C30   C     C_3   0.228693 0.514747 0.458062 0.255772
C31   C     C_3   0.229173 0.460665 0.509621 0.313903
C32   C     C_3   0.770763 0.460599 0.490197 0.310941
C33   C     C_3   0.232401 0.977658 0.960815 0.317178
C34   C     C_3   0.770211 0.960274 0.018274 0.266119
C35   C     C_3   0.730574 0.472679 0.531497 0.321538
C36   C     C_3   0.269361 0.472881 0.468376 0.321928
C37   C     C_3   0.188591 0.999802 0.996522 -0.495663
C38   C     C_3   0.811272 0.000358 0.001998 -0.454935
C39   C     C_3   0.688815 0.501683 0.500302 -0.470285
C40   C     C_3   0.311178 0.501704 0.499714 -0.463111
C41   C     C_1   0.999585 0.000005 0.136652 -0.117044
C42   C     C_1   0.000182 0.999969 0.863346 -0.131968
C43   C     C_1   0.499576 0.500093 0.636650 -0.123446
C44   C     C_1   0.500444 0.500046 0.363350 -0.125242
C45   C     C_1   0.999554 0.999964 0.179029 0.035536
C46   C     C_1   0.000240 0.999963 0.820968 0.021580
C47   C     C_1   0.499405 0.500166 0.679028 0.029128
C48   C     C_1   0.500621 0.500116 0.320973 0.027367
C49   C     C_1   0.999588 0.999930 0.229280 0.026908
C50   C     C_1   0.000247 0.999968 0.770716 0.016927
C51   C     C_1   0.499500 0.500154 0.729278 0.026332
C52   C     C_1   0.500524 0.500110 0.270722 0.025907
C53   C     C_1   0.999669 0.999925 0.271668 0.021076
C54   C     C_1   0.000210 0.999974 0.728328 0.016735
C55   C     C_1   0.499652 0.500114 0.771665 0.022920
C56   C     C_1   0.500366 0.500079 0.228335 0.023558
C57   C     C_1   0.999802 0.999939 0.321931 0.015474
C58   C     C_1   0.000134 0.999981 0.678067 0.012414
C59   C     C_1   0.499818 0.500065 0.821927 0.014368
C60   C     C_1   0.500192 0.500043 0.178073 0.015317
C61   C     C_1   0.999909 0.999958 0.364322 -0.175176
C62   C     C_1   0.000068 0.999986 0.635676 -0.177085
C63   C     C_1   0.499922 0.500030 0.864319 -0.175279
C64   C     C_1   0.500081 0.500018 0.135681 -0.174362
O17   O     O_R   0.500000 0.061920 0.964120 -0.559926
O18   O     O_R   0.500000 0.061920 0.035880 -0.561149
O19   O     O_R   0.000000 0.561920 0.464120 -0.586216
O20   O     O_R   0.000000 0.561920 0.535880 -0.573143
C65   C     C_R   0.499915 0.085494 0.000009 0.876255
C66   C     C_R   0.000008 0.585490 0.500008 0.830266
O21   O     O_R   0.408440 0.999940 0.964130 -0.549036
O22   O     O_R   0.591560 0.999940 0.035870 -0.557201
O23   O     O_R   0.591560 0.999940 0.964130 -0.541505
O24   O     O_R   0.408440 0.999940 0.035870 -0.567434
O25   O     O_R   0.908440 0.499940 0.464130 -0.530023
O26   O     O_R   0.091560 0.499940 0.535870 -0.528779
O27   O     O_R   0.091560 0.499940 0.464130 -0.584043
O28   O     O_R   0.908440 0.499940 0.535870 -0.585721
C67   C     C_R   0.378825 0.000373 0.000070 0.980359
C68   C     C_R   0.621267 0.999177 0.000121 1.003792
C69   C     C_R   0.878855 0.501120 0.500069 0.983380
C70   C     C_R   0.121139 0.501240 0.499939 0.978132
Cu5   Cu    Cu3+1 0.500000 0.999950 0.957510 1.082564
Cu6   Cu    Cu3+1 0.500000 0.999950 0.042490 1.048914
Cu7   Cu    Cu3+1 1.000000 0.499950 0.457510 1.047377
Cu8   Cu    Cu3+1 0.000000 0.499950 0.542490 1.053464
O29   O     O_R   0.500000 0.937960 0.964120 -0.563004
O30   O     O_R   0.500000 0.937960 0.035880 -0.587791
O31   O     O_R   0.000000 0.437960 0.464120 -0.564011
O32   O     O_R   0.000000 0.437960 0.535880 -0.565432
C71   C     C_R   0.500654 0.914397 0.999969 0.802734
C72   C     C_R   0.000002 0.414391 0.499991 0.851620
O33   O     O_R   0.053020 0.061970 0.500000 -0.555023
O34   O     O_R   0.946980 0.061970 0.500000 -0.555055
O35   O     O_R   0.553020 0.561970 0.000000 -0.555231
O36   O     O_R   0.446980 0.561970 0.000000 -0.555585
C73   C     C_R   0.000001 0.084501 0.499999 0.794097
C74   C     C_R   0.500003 0.584501 0.000003 0.792574
O37   O     O_R   0.053020 0.999990 0.438010 -0.553018
O38   O     O_R   0.946980 0.999990 0.561990 -0.553785
O39   O     O_R   0.946980 0.999990 0.438010 -0.555707
O40   O     O_R   0.053020 0.999990 0.561990 -0.555842
O41   O     O_R   0.553020 0.499990 0.938010 -0.556281
O42   O     O_R   0.446980 0.499990 0.061990 -0.556075
O43   O     O_R   0.446980 0.499990 0.938010 -0.552601
O44   O     O_R   0.553020 0.499990 0.061990 -0.552150
C75   C     C_R   0.999981 0.999980 0.415471 0.793663
C76   C     C_R   0.000016 0.999990 0.584528 0.793175
C77   C     C_R   0.499984 0.499997 0.915471 0.792909
C78   C     C_R   0.500017 0.499996 0.084529 0.793319
Cu9   Cu    Cu3+1 0.062770 0.999990 0.500000 0.984587
Cu10  Cu    Cu3+1 0.937230 0.999990 0.500000 0.983727
Cu11  Cu    Cu3+1 0.562770 0.499990 0.000000 0.987061
Cu12  Cu    Cu3+1 0.437230 0.499990 0.000000 0.986446
O45   O     O_R   0.053000 0.938010 0.500000 -0.554023
O46   O     O_R   0.947000 0.938010 0.500000 -0.554393
O47   O     O_R   0.553000 0.438010 0.000000 -0.553196
O48   O     O_R   0.447000 0.438010 0.000000 -0.553331
C79   C     C_R   0.999998 0.915462 0.499999 0.793065
C80   C     C_R   0.499999 0.415467 1.000000 0.793996
C81   C     C_1   0.499911 0.136627 0.000022 -0.090746
C82   C     C_1   0.999991 0.636604 0.500020 -0.135960
C83   C     C_1   0.499942 0.179012 0.000022 0.049511
C84   C     C_1   0.999974 0.678983 0.500016 0.020261
C85   C     C_1   0.499972 0.229270 0.000017 0.032336
C86   C     C_1   0.999969 0.729239 0.500008 0.024235
C87   C     C_1   0.999973 0.771633 0.500004 0.020709
C88   C     C_1   0.499986 0.271661 0.000013 0.026557
C89   C     C_1   0.999983 0.821905 0.500001 0.014679
C90   C     C_1   0.499994 0.321925 0.000008 0.019546
C91   C     C_1   0.999992 0.864303 0.500000 -0.175692
C92   C     C_1   0.499997 0.364318 0.000003 -0.171931
C93   C     C_1   0.500599 0.863267 0.999924 -0.176654
C94   C     C_1   0.000004 0.363270 0.499976 -0.162590
C95   C     C_1   0.500436 0.820893 0.999952 0.009086
C96   C     C_1   0.000005 0.320893 0.499973 0.001589
C97   C     C_1   0.500262 0.770652 0.999987 0.008501
C98   C     C_1   0.000006 0.270651 0.499976 0.010099
C99   C     C_1   0.000006 0.228270 0.499981 0.013561
C100  C     C_1   0.500156 0.728270 0.000002 0.010186
C101  C     C_1   0.000005 0.178021 0.499988 0.011077
C102  C     C_1   0.500070 0.678021 0.000008 0.009473
C103  C     C_1   0.000003 0.135636 0.499994 -0.177239
C104  C     C_1   0.500023 0.635636 0.000007 -0.178358
S1    S     S_3+6 0.295677 0.050870 0.085747 0.113566
O49   O     O_2   0.336582 0.089734 0.071409 -0.260721
O50   O     O_2   0.241315 0.068892 0.112263 -0.178203
O51   O     O_3   0.336635 0.014991 0.118637 -0.505158
H1    H     H_    0.350932 0.033694 0.144639 0.368715
S2    S     S_3+6 0.697498 0.091134 0.962475 0.076147
O52   O     O_2   0.661064 0.080557 0.920162 -0.237490
O53   O     O_2   0.655181 0.112260 0.997200 -0.334335
O54   O     O_3   0.755131 0.127539 0.949755 -0.435011
H2    H     H_    0.733896 0.155263 0.938589 0.371708
S3    S     S_3+6 0.801204 0.570610 0.428211 0.109828
O55   O     O_2   0.835435 0.544331 0.392236 -0.236671
O56   O     O_2   0.749342 0.597024 0.406482 -0.173025
O57   O     O_3   0.850498 0.606685 0.454059 -0.546607
H3    H     H_    0.869526 0.624496 0.429100 0.368105
S4    S     S_3+6 0.199101 0.570569 0.572158 0.089093
O58   O     O_2   0.156777 0.604017 0.549046 -0.292413
O59   O     O_2   0.163013 0.544510 0.607277 -0.272724
O60   O     O_3   0.257528 0.598611 0.597722 -0.425394
H4    H     H_    0.236952 0.619545 0.619401 0.371445
S5    S     S_3+6 0.190098 0.957035 0.086077 0.023383
O61   O     O_2   0.149620 0.993937 0.105378 -0.250178
O62   O     O_2   0.150253 0.916617 0.074658 -0.331506
O63   O     O_3   0.243145 0.942227 0.125268 -0.510522
H5    H     H_    0.218633 0.931225 0.151560 0.374128
S6    S     S_3+6 0.800401 0.013650 0.902755 0.056796
O64   O     O_2   0.831903 0.059141 0.899504 -0.218566
O65   O     O_2   0.846475 0.976802 0.891940 -0.354283
O66   O     O_3   0.741071 0.011343 0.865622 -0.472507
H6    H     H_    0.760571 0.015080 0.835343 0.370480
S7    S     S_3+6 0.799832 0.082594 0.058977 0.044496
O67   O     O_2   0.843217 0.066828 0.095783 -0.321784
O68   O     O_2   0.835431 0.112647 0.026864 -0.205447
O69   O     O_3   0.741273 0.112507 0.082332 -0.515728
H7    H     H_    0.737526 0.140443 0.063726 0.397444
S8    S     S_3+6 0.204910 0.101006 0.996509 0.067690
O70   O     O_2   0.162243 0.108610 0.956757 -0.331130
O71   O     O_2   0.171091 0.112231 0.039780 -0.196732
O72   O     O_3   0.267646 0.134699 0.991421 -0.490800
H8    H     H_    0.250941 0.166092 0.991349 0.375796
S9    S     S_3+6 0.697869 0.600542 0.518074 0.043114
O73   O     O_2   0.659934 0.612952 0.476985 -0.193567
O74   O     O_2   0.656936 0.601775 0.559484 -0.333024
O75   O     O_3   0.755775 0.638442 0.523714 -0.518182
H9    H     H_    0.734787 0.668026 0.528581 0.374817
S10   S     S_3+6 0.302354 0.600633 0.482350 0.043337
O76   O     O_2   0.340430 0.612882 0.523425 -0.187319
O77   O     O_2   0.343198 0.601904 0.440895 -0.333185
O78   O     O_3   0.244584 0.638663 0.476899 -0.523522
H10   H     H_    0.265676 0.668209 0.472057 0.375078
S11   S     S_3+6 0.300240 0.474850 0.595727 0.044084
O79   O     O_2   0.346927 0.437142 0.591035 -0.309686
O80   O     O_2   0.331798 0.515524 0.616424 -0.248724
O81   O     O_3   0.241650 0.457399 0.629360 -0.494890
H11   H     H_    0.237891 0.480850 0.653389 0.390883
S12   S     S_3+6 0.699981 0.475417 0.404057 0.039228
O82   O     O_2   0.653044 0.437826 0.408472 -0.341725
O83   O     O_2   0.669262 0.516418 0.383436 -0.232085
O84   O     O_3   0.758839 0.458234 0.370636 -0.485177
H12   H     H_    0.739528 0.452369 0.340601 0.376217
O85   O     O_3   0.298940 0.913386 0.991976 -0.591993
C105  C     C_3   0.295844 0.885009 0.030443 0.036231
H13   H     H_    0.302904 0.849586 0.018333 0.165471
H14   H     H_    0.249471 0.885087 0.046464 0.202989
C106  C     C_3   0.347685 0.896077 0.064331 -0.303495
H15   H     H_    0.392904 0.894579 0.046540 0.209177
H16   H     H_    0.341643 0.930969 0.077887 0.282635
C107  C     C_3   0.348754 0.862225 0.103636 -0.826598
H17   H     H_    0.303385 0.862007 0.121618 0.279842
H18   H     H_    0.385696 0.871982 0.128154 0.260087
H19   H     H_    0.358790 0.827456 0.090779 0.240049
O86   O     O_3   0.704681 0.932352 0.946565 -0.579001
C108  C     C_3   0.748606 0.897864 0.937544 0.158890
H20   H     H_    0.744850 0.871253 0.964260 0.171538
H21   H     H_    0.797370 0.910684 0.936759 0.184674
C109  C     C_3   0.733969 0.876558 0.891393 -0.325874
H22   H     H_    0.686017 0.862464 0.891838 0.225828
H23   H     H_    0.736481 0.903188 0.864618 0.262033
C110  C     C_3   0.779693 0.838583 0.879885 -0.904038
H24   H     H_    0.827832 0.852176 0.878272 0.270560
H25   H     H_    0.767686 0.823760 0.846271 0.266131
H26   H     H_    0.777424 0.811282 0.905941 0.255661
O87   O     O_3   0.698653 0.983046 0.085720 -0.586878
C111  C     C_3   0.728004 0.003968 0.122985 0.122419
H27   H     H_    0.715395 0.040519 0.123908 0.232979
H28   H     H_    0.779290 0.999864 0.121548 0.148047
C112  C     C_3   0.704766 0.981900 0.166816 -0.379779
H29   H     H_    0.653608 0.986518 0.169525 0.239317
H30   H     H_    0.714860 0.944831 0.166009 0.220555
C113  C     C_3   0.735963 0.002800 0.208506 -0.860390
H31   H     H_    0.787085 0.997637 0.206962 0.258939
H32   H     H_    0.717951 0.986227 0.239764 0.258990
H33   H     H_    0.725817 0.039802 0.210383 0.272720
O88   O     O_3   0.300168 0.042634 0.924555 -0.565992
C114  C     C_3   0.254791 0.056491 0.892593 0.187841
H34   H     H_    0.253504 0.094268 0.892206 0.189898
H35   H     H_    0.206729 0.044323 0.900120 0.142949
C115  C     C_3   0.273482 0.039568 0.845397 -0.351001
H36   H     H_    0.319442 0.054120 0.836091 0.230105
H37   H     H_    0.277691 0.001897 0.845911 0.259297
C116  C     C_3   0.225624 0.053158 0.809560 -0.899709
H38   H     H_    0.179667 0.037893 0.817592 0.257955
H39   H     H_    0.240781 0.040684 0.775684 0.265667
H40   H     H_    0.221011 0.090763 0.808119 0.266030
O89   O     O_3   0.796910 0.517917 0.586378 -0.588017
C117  C     C_3   0.800877 0.563021 0.602293 0.072013
H41   H     H_    0.805281 0.561226 0.639894 0.156528
H42   H     H_    0.757947 0.582531 0.596217 0.206410
C118  C     C_3   0.858746 0.587178 0.583885 -0.304467
H43   H     H_    0.900604 0.567052 0.592974 0.236898
H44   H     H_    0.856042 0.589869 0.546300 0.258025
C119  C     C_3   0.865753 0.634697 0.604145 -0.841921
H45   H     H_    0.824097 0.655703 0.596757 0.281692
H46   H     H_    0.907119 0.651589 0.589154 0.260323
H47   H     H_    0.872187 0.632518 0.641567 0.244359
O90   O     O_3   0.203093 0.518447 0.413751 -0.587451
C120  C     C_3   0.198999 0.563646 0.398166 0.074481
H48   H     H_    0.194379 0.562073 0.360567 0.156891
H49   H     H_    0.241963 0.583126 0.404233 0.206370
C121  C     C_3   0.141230 0.587691 0.416911 -0.306703
H50   H     H_    0.099346 0.567585 0.407836 0.237072
H51   H     H_    0.144150 0.590222 0.454511 0.250025
C122  C     C_3   0.134047 0.635292 0.396917 -0.844819
H52   H     H_    0.175719 0.656298 0.404281 0.282971
H53   H     H_    0.092746 0.652091 0.412119 0.257482
H54   H     H_    0.127395 0.633268 0.359505 0.244769
O91   O     O_3   0.201498 0.417970 0.518062 -0.589980
C123  C     C_3   0.247076 0.385052 0.528456 0.171660
H55   H     H_    0.252759 0.383431 0.565964 0.212352
H56   H     H_    0.293245 0.392228 0.512745 0.173093
C124  C     C_3   0.224667 0.338748 0.511509 -0.363139
H57   H     H_    0.179137 0.330564 0.527417 0.233386
H58   H     H_    0.218211 0.340101 0.474015 0.244223
C125  C     C_3   0.271138 0.301262 0.523009 -0.882101
H59   H     H_    0.316669 0.308276 0.506631 0.263338
H60   H     H_    0.253422 0.268129 0.510316 0.263291
H61   H     H_    0.277625 0.298878 0.560418 0.266221
O92   O     O_3   0.798342 0.417905 0.481561 -0.589579
C126  C     C_3   0.752698 0.385137 0.470818 0.169366
H62   H     H_    0.746966 0.383907 0.433298 0.204969
H63   H     H_    0.706573 0.392200 0.486656 0.174624
C127  C     C_3   0.775041 0.338639 0.487225 -0.362127
H64   H     H_    0.820536 0.330580 0.471195 0.233263
H65   H     H_    0.781544 0.339594 0.524727 0.243610
C128  C     C_3   0.728486 0.301319 0.475329 -0.883363
H66   H     H_    0.682988 0.308204 0.491813 0.263313
H67   H     H_    0.746154 0.268039 0.487634 0.263460
H68   H     H_    0.721953 0.299333 0.437899 0.265316
O93   O     O_3   0.224478 0.955934 0.918164 -0.585372
C129  C     C_3   0.167495 0.932653 0.914503 0.077648
H69   H     H_    0.162431 0.922485 0.878299 0.162797
H70   H     H_    0.127535 0.955345 0.921146 0.112341
C130  C     C_3   0.166366 0.889118 0.943353 -0.301217
H71   H     H_    0.206983 0.867561 0.934355 0.239050
H72   H     H_    0.169431 0.897630 0.980021 0.245566
C131  C     C_3   0.106815 0.862099 0.935383 -0.887238
H73   H     H_    0.065619 0.882690 0.945044 0.273929
H74   H     H_    0.107505 0.830828 0.956539 0.254965
H75   H     H_    0.102929 0.852067 0.899066 0.249975
O94   O     O_3   0.792677 0.917338 0.032305 -0.604671
C132  C     C_3   0.820323 0.920258 0.075700 0.117252
H76   H     H_    0.783510 0.917869 0.102046 0.168696
H77   H     H_    0.847192 0.952318 0.080469 0.116068
C133  C     C_3   0.864967 0.880351 0.081828 -0.335174
H78   H     H_    0.839083 0.847848 0.077966 0.223565
H79   H     H_    0.901537 0.881807 0.055164 0.235711
C134  C     C_3   0.895805 0.881495 0.128573 -0.892860
H80   H     H_    0.922930 0.913353 0.132825 0.256982
H81   H     H_    0.927897 0.852119 0.131994 0.266989
H82   H     H_    0.860128 0.879387 0.155797 0.253864
O95   O     O_3   0.710860 0.439403 0.562938 -0.585729
C135  C     C_3   0.673654 0.458835 0.597522 0.105194
H83   H     H_    0.625675 0.445387 0.593730 0.147092
H84   H     H_    0.670611 0.496744 0.596506 0.131794
C136  C     C_3   0.699293 0.444435 0.643812 -0.299471
H85   H     H_    0.702418 0.406720 0.645314 0.229045
H86   H     H_    0.746787 0.458621 0.648242 0.253898
C137  C     C_3   0.658048 0.461090 0.682572 -0.924681
H87   H     H_    0.653192 0.498693 0.681366 0.261709
H88   H     H_    0.679154 0.451466 0.715662 0.267350
H89   H     H_    0.611398 0.445120 0.680155 0.260614
O96   O     O_3   0.289004 0.439713 0.436770 -0.585983
C138  C     C_3   0.326197 0.459251 0.402255 0.104133
H90   H     H_    0.374148 0.445722 0.405931 0.146855
H91   H     H_    0.329344 0.497150 0.403472 0.131930
C139  C     C_3   0.300430 0.445089 0.355916 -0.298343
H92   H     H_    0.297153 0.407387 0.354231 0.229525
H93   H     H_    0.252985 0.459388 0.351596 0.254205
C140  C     C_3   0.341677 0.461813 0.317202 -0.923197
H94   H     H_    0.346728 0.499396 0.318607 0.261917
H95   H     H_    0.320453 0.452397 0.284083 0.267790
H96   H     H_    0.388247 0.445704 0.319479 0.260305

loop_
_geom_bond_atom_site_label_1
_geom_bond_atom_site_label_2
_geom_bond_distance
_ccdc_geom_bond_type
Cu11  O47   1.834240 S    
O26   C70   1.234086 A    
O84   H12   0.990817 S    
C27   O87   1.415423 S    
S3    O56   1.501946 D    
C73   C103  1.503347 S    
C120  C121  1.532364 S    
O45   C79   1.318850 A    
C28   O88   1.412894 S    
C121  H50   1.109996 S    
C35   C39   1.541230 S    
C118  C119  1.525912 S    
C10   C18   1.539438 S    
C138  H90   1.110804 S    
C113  H32   1.110314 S    
C20   S4    1.789911 S    
O91   C123  1.411184 S    
O94   C132  1.410035 S    
C50   C54   1.246270 T    
S6    O65   1.502360 D    
C99   C101  1.477282 S    
O4    C4    1.262218 A    
C80   C92   1.503768 S    
O17   Cu5   1.832120 S    
S7    O69   1.682882 S    
O27   Cu7   1.979168 S    
S9    O74   1.503294 D    
O24   Cu6   1.979170 S    
C13   C39   1.556644 S    
C14   C40   1.556682 S    
C12   C37   1.546053 S    
C101  C103  1.246066 T    
C111  H28   1.110685 S    
C102  C104  1.246069 T    
O3    Cu2   1.832268 S    
O47   C80   1.318763 A    
C131  H75   1.110761 S    
C126  H63   1.115703 S    
C137  H87   1.111010 S    
O16   Cu4   1.979853 S    
C129  H69   1.110813 S    
O13   C5    1.233090 A    
O7    Cu4   1.831858 S    
C9    C25   1.562102 S    
C15   C40   1.542708 S    
C26   O86   1.411700 S    
C130  C131  1.525288 S    
O15   C7    1.226495 A    
S11   O79   1.502243 D    
C31   O91   1.411336 S    
C106  H15   1.105545 S    
C58   C62   1.246361 T    
C126  H62   1.110554 S    
C48   C52   1.477462 S    
O35   C74   1.318924 A    
C74   C104  1.503350 S    
C107  H18   1.110308 S    
C127  H64   1.111940 S    
O42   C78   1.319198 A    
C25   O85   1.417006 S    
O23   C68   1.236182 A    
O48   C80   1.318768 A    
O51   H1    0.990372 S    
C97   C100  1.245992 T    
O43   C77   1.319048 A    
C15   C31   1.538709 S    
C98   C99   1.245978 T    
O8    Cu4   1.831686 S    
C117  H42   1.101738 S    
C125  H59   1.110934 S    
C85   C88   1.246266 T    
C86   C87   1.246351 T    
C24   C30   1.539746 S    
S9    O73   1.502717 D    
C121  C122  1.525956 S    
O21   Cu5   1.979327 S    
C135  H83   1.110791 S    
C114  H35   1.116312 S    
C137  H89   1.110160 S    
C6    C38   1.452470 S    
C19   C23   1.545001 S    
O28   Cu8   1.979170 S    
O30   C71   1.262632 A    
C96   C98   1.477085 S    
C15   C20   1.543021 S    
C11   S7    1.795034 S    
C46   C50   1.477494 S    
C64   C78   1.503937 S    
O36   C74   1.319003 A    
C139  H92   1.111717 S    
O3    C3    1.262135 A    
O22   Cu6   1.979325 S    
O95   C135  1.414610 S    
C41   C45   1.245975 T    
C12   S8    1.789660 S    
O66   H6    0.990436 S    
C53   C57   1.477792 S    
Cu5   O29   1.832877 S    
C129  H70   1.105554 S    
C131  H74   1.110328 S    
S6    O64   1.502368 D    
C35   O95   1.411578 S    
O18   Cu6   1.832292 S    
O23   Cu5   1.979168 S    
O57   H3    0.990366 S    
O93   C129  1.408014 S    
C124  H58   1.111760 S    
C7    C39   1.453403 S    
C13   S9    1.797758 S    
C1    C41   1.503031 S    
C44   C48   1.245965 T    
C88   C90   1.477714 S    
C63   C77   1.503935 S    
C106  C107  1.525608 S    
C3    C43   1.502914 S    
C89   C91   1.246480 T    
C4    C44   1.502916 S    
C23   C32   1.531826 S    
S5    O62   1.502906 D    
S2    O52   1.502515 D    
C30   O90   1.418455 S    
O86   C108  1.411131 S    
C132  H77   1.114400 S    
C14   S10   1.798026 S    
O5    Cu3   1.831858 S    
O37   Cu9   1.834555 S    
C16   C32   1.538613 S    
Cu10  O46   1.834256 S    
C25   C33   1.540618 S    
S1    O50   1.502162 D    
C72   C94   1.502912 S    
C108  H20   1.111835 S    
S5    O63   1.678950 S    
C135  C136  1.528305 S    
S12   O82   1.502617 D    
O85   C105  1.407297 S    
C128  H67   1.110353 S    
C28   C33   1.535232 S    
C42   C46   1.245992 T    
O13   Cu3   1.979866 S    
O90   C120  1.408562 S    
C19   S3    1.789654 S    
S11   O81   1.682571 S    
C112  C113  1.526114 S    
C17   S1    1.789704 S    
C113  H33   1.110897 S    
C29   C35   1.540349 S    
C30   C36   1.540280 S    
S7    O67   1.502202 D    
C100  C102  1.477301 S    
O5    C1    1.262117 A    
C22   C68   1.453980 S    
C116  H39   1.110312 S    
O19   Cu7   1.832120 S    
O8    C4    1.261674 A    
C110  H26   1.110880 S    
C122  H53   1.110502 S    
C12   C17   1.538100 S    
O15   Cu4   1.979866 S    
C71   C93   1.503165 S    
C62   C76   1.503849 S    
O33   C73   1.318965 A    
S8    O71   1.502417 D    
S10   O77   1.503305 D    
C93   C95   1.245765 T    
O39   Cu10  1.834724 S    
O40   Cu9   1.834721 S    
Cu7   O31   1.832877 S    
C21   C25   1.536378 S    
O14   C6    1.231349 A    
O29   C71   1.261632 A    
C10   C26   1.536651 S    
C16   C19   1.542779 S    
C56   C60   1.477803 S    
C133  H78   1.111662 S    
C115  H36   1.111629 S    
C120  H49   1.101694 S    
S10   O78   1.679369 S    
O42   Cu12  1.834552 S    
O10   C6    1.234729 A    
C121  H51   1.109716 S    
O88   C114  1.414786 S    
O46   C79   1.318832 A    
C138  C139  1.528328 S    
C55   C59   1.477804 S    
C79   C91   1.504047 S    
C109  H22   1.111728 S    
C118  H44   1.109435 S    
C9    S5    1.799080 S    
C10   S6    1.785776 S    
C17   C21   1.543686 S    
C134  H82   1.110903 S    
O32   C72   1.262109 A    
O34   C73   1.318962 A    
C20   C24   1.545369 S    
C136  C137  1.525137 S    
C119  H45   1.109768 S    
C105  H13   1.110884 S    
C108  C109  1.526948 S    
O21   C67   1.234173 A    
C15   S11   1.786979 S    
S12   O84   1.680655 S    
O25   C69   1.234216 A    
S7    O68   1.503283 D    
O37   C75   1.319220 A    
O43   Cu12  1.834724 S    
C95   C97   1.477061 S    
C60   C64   1.246406 T    
C16   C39   1.542570 S    
C115  C116  1.526202 S    
C140  H94   1.111008 S    
C112  H29   1.111748 S    
O78   H10   0.990345 S    
O41   Cu11  1.834555 S    
C87   C89   1.477940 S    
O39   C75   1.318990 A    
C81   C83   1.246087 T    
Cu8   O32   1.832705 S    
C137  H88   1.110249 S    
S9    O75   1.679374 S    
O36   Cu12  1.834185 S    
O44   C78   1.319039 A    
C13   C29   1.558543 S    
C110  H24   1.111007 S    
C22   C26   1.532640 S    
C130  H72   1.108583 S    
S6    O66   1.680575 S    
C140  H95   1.110251 S    
S4    O59   1.502366 D    
O75   H9    0.990342 S    
C127  H65   1.111757 S    
C21   C67   1.448992 S    
C49   C53   1.246279 T    
S3    O57   1.680908 S    
C94   C96   1.245848 T    
O27   C70   1.230554 A    
C32   C35   1.532519 S    
C129  C130  1.535977 S    
C24   C70   1.449503 S    
C11   C27   1.555700 S    
O89   C117  1.408520 S    
C61   C75   1.503882 S    
C12   C28   1.536127 S    
C117  C118  1.532262 S    
C2    C42   1.503004 S    
C125  H60   1.110354 S    
C133  C134  1.526221 S    
C18   S2    1.787595 S    
C126  C127  1.527373 S    
O12   Cu2   1.979652 S    
C127  C128  1.525918 S    
C32   O92   1.411320 S    
O1    C1    1.261708 A    
C135  H84   1.116819 S    
C124  H57   1.111943 S    
C33   C37   1.553842 S    
O35   Cu11  1.834201 S    
C139  C140  1.525110 S    
O54   H2    0.990415 S    
C109  C110  1.525930 S    
C36   C40   1.541041 S    
C125  H61   1.110882 S    
C134  H80   1.110464 S    
C113  H31   1.111110 S    
C136  H85   1.111714 S    
C119  H47   1.110753 S    
C57   C61   1.246380 T    
C26   C34   1.536847 S    
C122  H54   1.110753 S    
C139  H93   1.111101 S    
C66   C82   1.502727 S    
C27   C34   1.540840 S    
C84   C86   1.477494 S    
C9    C37   1.555743 S    
Cu11  Cu12  2.700634 S    
Cu9   Cu10  2.700634 S    
Cu6   O30   1.832705 S    
C140  H96   1.110139 S    
C111  H27   1.108603 S    
O17   C65   1.262192 A    
O18   C65   1.262276 A    
O6    C2    1.261966 A    
O4    Cu2   1.832443 S    
O38   C76   1.319156 A    
O28   C69   1.230341 A    
Cu7   Cu8   2.498553 S    
C11   C18   1.547506 S    
C106  H16   1.108029 S    
C59   C63   1.246407 T    
S5    O61   1.502382 D    
S2    O53   1.502366 D    
C45   C49   1.477471 S    
C36   O96   1.411558 S    
C107  H17   1.110193 S    
O2    Cu1   1.832443 S    
C47   C51   1.477456 S    
O10   Cu1   1.979652 S    
O40   C76   1.319037 A    
C132  H76   1.110243 S    
C54   C58   1.477765 S    
O19   C66   1.262109 A    
C9    C17   1.550072 S    
Cu5   Cu6   2.498553 S    
C117  H41   1.110824 S    
S4    O58   1.502618 D    
S2    O54   1.680228 S    
O72   H8    0.990418 S    
S1    O49   1.502720 D    
C52   C56   1.246232 T    
C114  C115  1.527927 S    
C16   S12   1.786564 S    
S12   O83   1.502550 D    
O96   C138  1.414577 S    
C128  H66   1.110933 S    
O7    C3    1.261756 A    
C13   C19   1.550695 S    
C14   C20   1.550840 S    
C11   C38   1.555824 S    
C123  H55   1.110554 S    
C18   C22   1.539037 S    
Cu9   O45   1.834240 S    
S11   O80   1.503346 D    
C112  H30   1.111469 S    
C31   C36   1.532391 S    
O25   Cu7   1.979327 S    
S3    O55   1.502631 D    
O44   Cu11  1.834721 S    
S8    O70   1.502602 D    
C110  H25   1.110324 S    
O69   H7    0.990274 S    
C116  H38   1.111221 S    
S4    O60   1.680166 S    
O11   C7    1.239562 A    
O12   C8    1.239658 A    
O41   C77   1.319189 A    
O1    Cu1   1.832268 S    
O9    Cu1   1.979634 S    
C124  C125  1.525917 S    
C43   C47   1.245969 T    
C14   C30   1.558524 S    
O9    C5    1.233838 A    
O16   C8    1.226445 A    
C133  H79   1.111694 S    
O31   C72   1.262185 A    
C23   C29   1.539827 S    
O11   Cu2   1.979634 S    
C115  H37   1.111301 S    
C120  H48   1.110827 S    
C123  H56   1.115695 S    
C107  H19   1.110900 S    
O63   H5    0.990361 S    
C132  C133  1.526923 S    
C23   C69   1.449444 S    
O60   H4    0.990404 S    
C5    C37   1.452219 S    
C138  H91   1.116818 S    
O20   Cu8   1.832292 S    
O6    Cu3   1.831686 S    
C8    C40   1.453522 S    
C109  H23   1.111841 S    
C118  H43   1.110091 S    
C134  H81   1.110251 S    
C24   C31   1.531965 S    
C136  H86   1.111109 S    
C119  H46   1.110526 S    
S1    O51   1.680592 S    
C105  H14   1.103354 S    
C108  H21   1.114895 S    
C122  H52   1.109759 S    
C90   C92   1.246319 T    
C34   O94   1.413325 S    
C114  H34   1.111015 S    
O2    C2    1.261922 A    
O22   C68   1.230530 A    
C34   C38   1.548777 S    
C128  H68   1.110886 S    
C83   C85   1.477550 S    
O26   Cu8   1.979325 S    
O92   C126  1.411144 S    
O33   Cu9   1.834201 S    
O38   Cu10  1.834552 S    
O34   Cu10  1.834185 S    
C123  C124  1.527381 S    
O14   Cu3   1.979853 S    
O20   C66   1.262204 A    
Cu12  O48   1.834256 S    
O87   C111  1.405810 S    
C111  C112  1.527376 S    
Cu1   Cu3   2.497759 S    
C105  C106  1.530064 S    
Cu2   Cu4   2.497759 S    
C131  H73   1.110226 S    
C51   C55   1.246236 T    
O81   H11   0.990266 S    
O24   C67   1.230211 A    
S8    O72   1.680803 S    
C65   C81   1.503250 S    
C10   C38   1.541287 S    
C21   C28   1.526380 S    
C82   C84   1.245901 T    
C22   C27   1.546219 S    
C130  H71   1.111386 S    
C116  H40   1.110848 S    
S10   O76   1.502603 D    
C33   O93   1.417262 S    
C29   O89   1.418479 S    
