data_mof_unit_pretest_1875.cif
_audit_creation_date              2012-12-11T14:47:39-0500
_audit_creation_method            fapswitch 2.2
_symmetry_space_group_name_H-M    P1
_symmetry_Int_Tables_number       1
_space_group_crystal_system       triclinic
_cell_length_a                    19.450905
_cell_length_b                    6.969881
_cell_length_c                    19.386962
_cell_angle_alpha                 90.012187
_cell_angle_beta                  96.120157
_cell_angle_gamma                 90.013578
_cell_volume                      2613.31985119

loop_
_atom_site_label
_atom_site_type_symbol
_atom_type_description
_atom_site_fract_x
_atom_site_fract_y
_atom_site_fract_z
_atom_type_partial_charge
O1    O     O_R   0.673510 0.377480 0.186100 -0.530965
O2    O     O_R   0.326490 0.622520 0.813900 -0.530965
O3    O     O_R   0.826490 0.877480 0.313900 -0.530875
O4    O     O_R   0.173510 0.122520 0.686100 -0.530875
O5    O     O_R   0.807790 0.705750 0.184090 -0.526946
O6    O     O_R   0.192210 0.294250 0.815910 -0.526946
O7    O     O_R   0.692210 0.205750 0.315910 -0.526941
O8    O     O_R   0.307790 0.794250 0.684090 -0.526942
C1    C     C_1   0.478131 0.994551 0.521199 0.020007
C2    C     C_1   0.521869 0.005449 0.478801 0.020007
C3    C     C_1   0.021868 0.494550 0.978801 0.019813
C4    C     C_1   0.978131 0.505450 0.021199 0.019813
C5    C     C_R   0.830731 0.538237 0.166124 0.744888
C6    C     C_R   0.169269 0.461763 0.833876 0.744888
C7    C     C_R   0.669268 0.038235 0.333875 0.744852
C8    C     C_R   0.330732 0.961765 0.666125 0.744851
O9    O     O_R   0.672870 0.707110 0.178120 -0.525636
O10   O     O_R   0.327130 0.292890 0.821880 -0.525635
O11   O     O_R   0.827130 0.207110 0.321880 -0.525614
O12   O     O_R   0.172870 0.792890 0.678120 -0.525614
O13   O     O_R   0.690610 0.878650 0.307880 -0.517010
O14   O     O_R   0.309390 0.121350 0.692120 -0.517010
O15   O     O_R   0.809390 0.378650 0.192120 -0.517066
O16   O     O_R   0.190610 0.621350 0.807880 -0.517066
C9    C     C_R   0.646634 0.539719 0.162018 0.732345
C10   C     C_R   0.353366 0.460281 0.837982 0.732345
C11   C     C_R   0.853386 0.039810 0.337967 0.732331
C12   C     C_R   0.146614 0.960190 0.662033 0.732331
C13   C     C_1   0.382772 0.971831 0.614145 -0.178428
C14   C     C_1   0.617228 0.028168 0.385855 -0.178429
C15   C     C_1   0.117227 0.471830 0.885853 -0.178749
C16   C     C_1   0.882773 0.528170 0.114146 -0.178749
O17   O     O_3   0.755980 0.544260 0.292580 -0.359087
O18   O     O_3   0.244020 0.455740 0.707420 -0.359087
O19   O     O_3   0.744020 0.044260 0.207420 -0.359268
O20   O     O_3   0.255980 0.955740 0.792580 -0.359268
V1    V     V_3+5 0.748890 0.818640 0.242100 1.480301
V2    V     V_3+5 0.251110 0.181360 0.757900 1.480301
V3    V     V_3+5 0.751110 0.318640 0.257900 1.480341
V4    V     V_3+5 0.248890 0.681360 0.742100 1.480341
C17   C     C_R   0.084351 0.960067 0.609773 -0.100296
C18   C     C_R   0.915649 0.039933 0.390226 -0.100296
C19   C     C_R   0.415651 0.460440 0.890199 -0.100116
C20   C     C_R   0.584349 0.539560 0.109801 -0.100116
C21   C     C_1   0.426310 0.981835 0.571523 0.027693
C22   C     C_1   0.573690 0.018165 0.428477 0.027693
C23   C     C_1   0.073689 0.481832 0.928476 0.027385
C24   C     C_1   0.926311 0.518168 0.071524 0.027385
C25   C     C_R   0.022805 0.192705 0.441034 -0.169855
C26   C     C_R   0.977195 0.807295 0.558966 -0.169855
C27   C     C_R   0.476842 0.691142 0.059451 -0.169665
C28   C     C_R   0.523158 0.308858 0.940549 -0.169664
C29   C     C_R   0.968735 0.178566 0.387325 0.146685
C30   C     C_R   0.031264 0.821434 0.612675 0.146685
C31   C     C_R   0.530984 0.677034 0.113085 0.146654
C32   C     C_R   0.469016 0.322966 0.886915 0.146654
C33   C     C_R   0.919801 0.913759 0.447201 -0.229348
C34   C     C_R   0.080199 0.086241 0.552798 -0.229348
C35   C     C_R   0.580425 0.414377 0.052530 -0.229858
C36   C     C_R   0.419575 0.585623 0.947470 -0.229858
C37   C     C_R   0.974179 0.929292 0.501405 0.116670
C38   C     C_R   0.025821 0.070708 0.498595 0.116670
C39   C     C_R   0.525969 0.429831 0.998404 0.116694
C40   C     C_R   0.474031 0.570168 0.001596 0.116695
H1    H     H_    0.120551 0.192182 0.549519 0.129788
H2    H     H_    0.879449 0.807818 0.450481 0.129788
H3    H     H_    0.379001 0.690688 0.951029 0.129322
H4    H     H_    0.620999 0.309312 0.048971 0.129322
H5    H     H_    0.062651 0.299963 0.437673 0.146499
H6    H     H_    0.937349 0.700037 0.562327 0.146499
H7    H     H_    0.436780 0.797551 0.063108 0.146447
H8    H     H_    0.563220 0.202449 0.936892 0.146447
I1    I     I_    0.026071 0.631493 0.697693 -0.406521
I2    I     I_    0.973929 0.368507 0.302306 -0.406522
I3    I     I_    0.474471 0.135031 0.801359 -0.406471
I4    I     I_    0.525529 0.864969 0.198641 -0.406471

loop_
_geom_bond_atom_site_label_1
_geom_bond_atom_site_label_2
_ccdc_geom_bond_type
C34   C38   A    
C1    C21   S    
O5    V1    S    
C5    C16   S    
C3    C23   S    
C29   I2    S    
O10   C10   A    
C6    C15   S    
C4    C24   S    
C5    O15   A    
C26   C30   A    
C20   C31   A    
O19   V1    S    
C17   C34   A    
C18   C29   A    
O12   V4    S    
O15   V3    S    
C20   C35   A    
O14   V2    S    
C12   C17   S    
C9    C20   S    
C6    O16   A    
O17   V3    S    
C36   H3    S    
C2    C22   S    
O6    V2    S    
O11   C11   A    
C1    C2    T    
C33   H2    S    
O5    C5    A    
O7    C7    A    
O8    C8    A    
C32   I3    S    
C15   C23   T    
O1    C9    A    
C16   C24   T    
C27   H7    S    
C18   C33   A    
O4    C12   A    
C10   C19   S    
O20   V4    S    
O12   C12   A    
C8    C13   S    
O17   V1    S    
C13   C21   T    
O19   V3    S    
C28   H8    S    
C35   H4    S    
O6    C6    A    
C30   I1    S    
C34   H1    S    
O2    C10   A    
O9    V1    S    
O11   V3    S    
C19   C36   A    
C31   I4    S    
O4    V2    S    
O18   V4    S    
C7    C14   S    
C8    O14   A    
C25   C38   A    
O18   V2    S    
C14   C22   T    
C27   C40   A    
C28   C39   A    
C3    C4    T    
C33   C37   A    
C35   C39   A    
C36   C40   A    
O9    C9    A    
O3    C11   A    
C26   H6    S    
C11   C18   S    
C25   C29   A    
O20   V2    S    
O16   V4    S    
C27   C31   A    
O10   V2    S    
C37   C38   A    
C17   C30   A    
O1    V3    S    
C39   C40   A    
O2    V4    S    
C19   C32   A    
C7    O13   A    
O13   V1    S    
O3    V1    S    
C26   C37   A    
O7    V3    S    
C25   H5    S    
O8    V4    S    
C28   C32   A    
