data_mof_unit_pretest_284.cif
_audit_creation_date              2012-12-10T17:47:06-0500
_audit_creation_method            fapswitch 2.2
_symmetry_space_group_name_H-M    P1
_symmetry_Int_Tables_number       1
_space_group_crystal_system       triclinic
_cell_length_a                    9.92533
_cell_length_b                    10.634495
_cell_length_c                    13.609927
_cell_angle_alpha                 88.632878
_cell_angle_beta                  83.041362
_cell_angle_gamma                 92.911858
_cell_volume                      1423.46402713

loop_
_atom_site_label
_atom_site_type_symbol
_atom_type_description
_atom_site_fract_x
_atom_site_fract_y
_atom_site_fract_z
_atom_type_partial_charge
C1    C     C_R   0.504071 0.739760 0.498331 0.966140
C2    C     C_R   0.540512 0.937188 0.573195 -0.227252
C3    C     C_R   0.531690 0.065213 0.572928 -0.200590
C4    C     C_R   0.475715 0.499988 0.685581 0.864809
C5    C     C_R   0.484116 0.126235 0.493137 -0.046751
C6    C     C_R   0.831755 0.335414 0.629938 -0.121693
C7    C     C_R   0.888302 0.253341 0.692647 -0.179462
C8    C     C_R   0.027885 0.253420 0.691340 -0.199430
C9    C     C_R   0.111731 0.335877 0.627515 -0.168389
C10   C     C_R   0.058041 0.420371 0.563139 0.154990
C11   C     C_R   0.913499 0.420335 0.563640 0.173849
C12   C     C_1   0.457830 0.501271 0.789374 -0.161365
C13   C     C_R   0.942868 0.581062 0.439312 -0.127013
C14   C     C_R   0.085930 0.581132 0.439352 -0.103139
C15   C     C_R   0.496446 0.260207 0.493763 0.855404
C16   C     C_R   0.524119 0.496662 0.314564 1.001537
C17   C     C_1   0.542774 0.490847 0.210980 -0.176473
C18   C     C_2   0.564625 0.481804 0.018062 0.585294
C19   C     C_2   0.449250 0.502087 0.980870 -0.291304
C20   C     C_1   0.448306 0.502165 0.877147 0.078061
C21   C     C_1   0.556812 0.485953 0.123308 -0.176585
C22   C     C_3   0.794578 0.437460 0.006323 -0.298531
C23   C     C_R   0.494991 0.876494 0.309447 0.501842
C24   C     C_3   0.702902 0.800942 0.268390 -0.344222
C25   C     C_3   0.442318 0.872574 0.130990 -0.885960
C26   C     C_3   0.263621 0.199894 0.353790 -0.824879
C27   C     C_R   0.440172 0.933197 0.230024 0.127993
C28   C     C_R   0.376211 0.045952 0.244374 -0.249213
C29   C     C_R   0.372878 0.107454 0.334602 0.115498
C30   C     C_R   0.445461 0.059000 0.410486 0.010020
C31   C     C_R   0.485350 0.934665 0.402758 -0.100952
C32   C     C_R   0.515738 0.872730 0.489260 -0.067658
H1    H     H_    0.355863 0.519917 0.027856 0.118633
H2    H     H_    0.900940 0.645153 0.389668 0.134835
H3    H     H_    0.773850 0.352318 0.056033 0.161231
H4    H     H_    0.822298 0.521294 0.048508 0.164171
H5    H     H_    0.883332 0.419719 0.951598 0.191716
H6    H     H_    0.747383 0.846712 0.330651 0.170234
H7    H     H_    0.720594 0.863238 0.200631 0.166856
H8    H     H_    0.757362 0.713999 0.251731 0.192760
H9    H     H_    0.491013 0.780900 0.129066 0.277674
H10   H     H_    0.336613 0.855573 0.113518 0.230677
H11   H     H_    0.499118 0.936283 0.072735 0.233005
H12   H     H_    0.723905 0.328801 0.636379 0.197822
H13   H     H_    0.215945 0.192147 0.431894 0.259639
H14   H     H_    0.304981 0.295822 0.332019 0.262035
H15   H     H_    0.179088 0.179144 0.308993 0.212062
H16   H     H_    0.823106 0.189221 0.742627 0.150009
H17   H     H_    0.071606 0.189375 0.740181 0.150011
H18   H     H_    0.217971 0.330989 0.630560 0.207418
H19   H     H_    0.151260 0.645271 0.389618 0.153720
H20   H     H_    0.566948 0.888283 0.638441 0.143440
H21   H     H_    0.323952 0.083882 0.185648 0.172546
H22   H     H_    0.558998 0.116821 0.636075 0.131773
N1    N     N_R   0.857120 0.501200 0.500900 -0.118481
N2    N     N_R   0.142720 0.501280 0.500940 -0.121277
O1    O     O_R   0.385310 0.683220 0.500000 -0.608081
O2    O     O_3   0.563465 0.767515 0.294362 -0.629461
O3    O     O_R   0.614640 0.683250 0.500010 -0.605782
O4    O     O_R   0.368830 0.499960 0.640340 -0.631463
O5    O     O_R   0.598160 0.499980 0.640350 -0.617884
O6    O     O_R   0.385360 0.316750 0.499990 -0.650742
O7    O     O_R   0.614690 0.316780 0.500000 -0.637695
O8    O     O_R   0.401840 0.500020 0.359650 -0.624045
O9    O     O_R   0.631170 0.500040 0.359660 -0.607841
O10   O     O_3   0.682636 0.459717 0.954760 -0.593256
Zn1   Zn    Zn3+2 0.346870 0.499980 0.499990 0.932124
Zn2   Zn    Zn3+2 0.653130 0.500020 0.500010 0.947043

loop_
_geom_bond_atom_site_label_1
_geom_bond_atom_site_label_2
_ccdc_geom_bond_type
C25   H10   S    
C23   O2    S    
C14   N2    A    
C28   H21   S    
C6    C7    A    
C1    O1    A    
O3    Zn2   S    
C18   O10   S    
N2    Zn1   S    
C10   N2    A    
C9    C10   A    
C24   H6    S    
C14   H19   S    
O9    Zn2   S    
C31   C32   A    
C7    H16   S    
C4    O4    A    
C2    C3    A    
C11   N1    A    
C13   H2    S    
C6    H12   S    
C13   C14   A    
C18   C21   S    
C22   H3    S    
O5    Zn2   S    
C12   C20   T    
C29   C30   A    
C2    H20   S    
C26   H15   S    
O1    Zn1   S    
O6    Zn1   S    
C16   C17   S    
C2    C32   A    
C25   H11   S    
C24   H8    S    
C15   O6    A    
N1    Zn2   S    
C23   C27   A    
C1    O3    A    
C30   C31   A    
C3    H22   S    
C5    C15   S    
C4    C12   S    
C10   C11   A    
C26   H14   S    
C28   C29   A    
O8    Zn1   S    
C3    C5    A    
C27   C28   A    
C24   H7    S    
C22   H4    S    
O4    Zn1   S    
C26   C29   S    
C24   O2    S    
C18   C19   D    
C19   H1    S    
C25   H9    S    
C6    C11   A    
C7    C8    A    
C15   O7    A    
O7    Zn2   S    
C22   O10   S    
C16   O9    A    
C16   O8    A    
C26   H13   S    
C8    H17   S    
C22   H5    S    
C4    O5    A    
C1    C32   S    
C17   C21   T    
C9    H18   S    
C19   C20   S    
C5    C30   A    
C8    C9    A    
C13   N1    A    
C25   C27   S    
C23   C31   A    
