data_mof_unit_pretest_492.cif
_audit_creation_date              2012-10-26T20:48:47-0400
_audit_creation_method            fapswitch 2.2
_symmetry_space_group_name_H-M    P1
_symmetry_Int_Tables_number       1
_space_group_crystal_system       triclinic
_cell_length_a                    15.143002
_cell_length_b                    14.076438
_cell_length_c                    9.061915
_cell_angle_alpha                 90.006704
_cell_angle_beta                  93.449277
_cell_angle_gamma                 90.033942
_cell_volume                      1928.13392461

loop_
_atom_site_label
_atom_site_type_symbol
_atom_type_description
_atom_site_fract_x
_atom_site_fract_y
_atom_site_fract_z
_atom_type_partial_charge
C1    C     C_R   0.330228 0.500160 0.501189 0.548203
C2    C     C_R   0.572163 0.892410 0.559614 -0.130670
C3    C     C_R   0.499858 0.500006 0.221012 0.578057
C4    C     C_R   0.500135 0.500013 0.778988 0.578432
C5    C     C_R   0.500010 0.053749 0.500042 -0.016622
C6    C     C_R   0.499984 0.945263 0.500005 -0.015978
C7    C     C_1   0.499947 0.500012 0.065649 0.009071
C8    C     C_1   0.500043 0.500022 0.934350 0.009040
C9    C     C_R   0.097379 0.582883 0.549274 -0.112496
C10   C     C_R   0.906701 0.420927 0.539817 -0.113518
C11   C     C_R   0.902841 0.584135 0.454290 -0.112788
C12   C     C_R   0.669789 0.500184 0.498510 0.548781
C13   C     C_R   0.093159 0.422426 0.451815 -0.113551
C14   C     C_R   0.189387 0.581860 0.550817 -0.115846
C15   C     C_R   0.814984 0.419811 0.536977 -0.113661
C16   C     C_R   0.810854 0.583107 0.453192 -0.116580
C17   C     C_R   0.184879 0.421263 0.455153 -0.112608
C18   C     C_R   0.233660 0.501026 0.502903 0.019357
C19   C     C_R   0.766375 0.501024 0.495892 0.018970
C20   C     C_R   0.048574 0.503126 0.499283 0.030235
C21   C     C_R   0.951465 0.503046 0.498303 0.030505
C22   C     C_2   0.639093 0.249153 0.672527 0.584171
C23   C     C_R   0.563218 0.207015 0.584094 0.182829
C24   C     C_2   0.354623 0.746992 0.350683 0.604550
C25   C     C_2   0.360948 0.248801 0.327317 0.583774
C26   C     C_2   0.645397 0.747378 0.649632 0.603153
C27   C     C_R   0.430108 0.792180 0.433914 0.182232
C28   C     C_R   0.436800 0.206881 0.415924 0.183359
C29   C     C_R   0.569892 0.792311 0.566112 0.181827
C30   C     C_R   0.561127 0.106655 0.587837 -0.123175
C31   C     C_R   0.427800 0.892281 0.440373 -0.130770
C32   C     C_R   0.438921 0.106531 0.412215 -0.123003
Cu1   Cu    Cu3+1 0.500000 0.596430 0.500000 1.068450
Cu2   Cu    Cu3+1 0.500000 0.403570 0.500000 1.067780
H1    H     H_    0.064556 0.645352 0.589105 0.124947
H2    H     H_    0.368986 0.927536 0.394996 0.140397
H3    H     H_    0.391973 0.070507 0.337288 0.141788
H4    H     H_    0.630938 0.927798 0.605021 0.141524
H5    H     H_    0.767144 0.233335 0.745141 0.333575
H6    H     H_    0.221989 0.737884 0.316821 0.339467
H7    H     H_    0.233265 0.231807 0.253066 0.332848
H8    H     H_    0.777992 0.739964 0.685735 0.339292
H9    H     H_    0.942566 0.357744 0.575994 0.122396
H10   H     H_    0.935792 0.647727 0.418789 0.125139
H11   H     H_    0.057152 0.360447 0.410617 0.121905
H12   H     H_    0.225850 0.643697 0.591295 0.168610
H13   H     H_    0.782224 0.355756 0.568428 0.171440
H14   H     H_    0.774586 0.645993 0.417064 0.170235
H15   H     H_    0.217544 0.358493 0.418512 0.170703
H16   H     H_    0.608131 0.070751 0.662727 0.141621
N1    N     N_R   0.500000 0.258690 0.500000 -0.274517
N2    N     N_R   0.500000 0.741310 0.500000 -0.275860
O1    O     O_R   0.371460 0.581430 0.500010 -0.497653
O2    O     O_R   0.721681 0.204571 0.671414 -0.731387
O3    O     O_2   0.366804 0.694139 0.247149 -0.485456
O4    O     O_R   0.268447 0.771274 0.383385 -0.725669
O5    O     O_2   0.370485 0.315128 0.243650 -0.489144
O6    O     O_R   0.278495 0.203752 0.327813 -0.730725
O7    O     O_2   0.633182 0.693618 0.752013 -0.484409
O8    O     O_R   0.731564 0.773177 0.618969 -0.727432
O9    O     O_R   0.628540 0.418570 0.499990 -0.495900
O10   O     O_R   0.628540 0.581430 0.499990 -0.497902
O11   O     O_R   0.371460 0.418570 0.500010 -0.495252
O12   O     O_R   0.500000 0.581420 0.288390 -0.465397
O13   O     O_R   0.500000 0.418580 0.711610 -0.458906
O14   O     O_R   0.500000 0.581420 0.711610 -0.464976
O15   O     O_R   0.500000 0.418580 0.288390 -0.459027
O16   O     O_2   0.629502 0.315316 0.756484 -0.487785

loop_
_geom_bond_atom_site_label_1
_geom_bond_atom_site_label_2
_ccdc_geom_bond_type
Cu2   O15   S    
Cu1   O14   S    
C13   H11   S    
C9    C14   A    
H8    O8    S    
C13   C17   A    
C24   O4    S    
C12   O10   A    
C26   O7    D    
C2    H4    S    
C9    C20   A    
C23   N1    A    
C24   C27   S    
C15   H13   S    
C4    C8    S    
C5    C32   A    
C16   H14   S    
C17   C18   A    
C1    C18   S    
C7    C8    T    
C22   O2    S    
C3    O12   A    
C20   C21   S    
Cu1   N2    S    
C15   C19   A    
C12   O9    A    
C22   O16   D    
Cu2   N1    S    
C2    C6    A    
C25   O5    D    
Cu1   O12   S    
C5    C6    S    
C1    O11   A    
C12   C19   S    
Cu2   O11   S    
H7    O6    S    
Cu1   Cu2   S    
C3    C7    S    
C10   C15   A    
C16   C19   A    
C10   C21   A    
Cu1   O1    S    
C4    O13   A    
C30   H16   S    
C28   N1    A    
H5    O2    S    
C32   H3    S    
C25   O6    S    
C25   C28   S    
C27   C31   A    
C6    C31   A    
C23   C30   A    
C11   H10   S    
C28   C32   A    
C2    C29   A    
C27   N2    A    
C4    O14   A    
C26   C29   S    
C14   H12   S    
C5    C30   A    
C11   C16   A    
C17   H15   S    
C9    H1    S    
C14   C18   A    
C22   C23   S    
C1    O1    A    
C13   C20   A    
H6    O4    S    
C10   H9    S    
C31   H2    S    
C26   O8    S    
C11   C21   A    
Cu2   O9    S    
C3    O15   A    
Cu1   O10   S    
C24   O3    D    
C29   N2    A    
Cu2   O13   S    
