data_mof_unit_pretest_1936.cif
_audit_creation_date              2012-12-10T17:36:47-0500
_audit_creation_method            fapswitch 2.2
_symmetry_space_group_name_H-M    P1
_symmetry_Int_Tables_number       1
_space_group_crystal_system       triclinic
_cell_length_a                    43.846984
_cell_length_b                    30.16383
_cell_length_c                    30.132762
_cell_angle_alpha                 89.998602
_cell_angle_beta                  133.3909
_cell_angle_gamma                 89.998267
_cell_volume                      28960.8045321

loop_
_atom_site_label
_atom_site_type_symbol
_atom_type_description
_atom_site_fract_x
_atom_site_fract_y
_atom_site_fract_z
_atom_type_partial_charge
C1    C     C_R   0.499571 0.500010 0.913017 0.936483
C2    C     C_3   0.726103 0.494870 0.179243 0.007110
C3    C     C_R   0.919021 0.499848 0.419051 0.954839
C4    C     C_R   0.580978 0.999847 0.580950 0.954735
C5    C     C_R   0.419021 0.999847 0.419051 0.954785
C6    C     C_R   0.999997 0.413400 0.499998 1.028054
C7    C     C_R   0.499998 0.913399 0.499998 1.027975
C8    C     C_R   0.500001 0.412898 0.500002 0.896352
C9    C     C_R   0.000001 0.912899 0.500001 0.896323
C10   C     C_R   0.499942 0.500008 0.586983 0.898726
C11   C     C_R   0.500058 0.500009 0.413015 0.898786
C12   C     C_R   0.999942 0.000008 0.586984 0.898763
C13   C     C_3   0.773905 0.995794 0.820861 0.006833
C14   C     C_R   0.000058 0.000009 0.413015 0.898794
C15   C     C_R   0.499999 0.587082 0.499999 0.904191
C16   C     C_R   0.999999 0.087083 0.499999 0.904255
C17   C     C_R   0.463509 0.341935 0.474807 -0.207718
C18   C     C_R   0.536502 0.341933 0.525207 -0.207739
C19   C     C_R   0.963551 0.841938 0.474995 -0.207729
C20   C     C_R   0.036462 0.841938 0.525019 -0.207744
C21   C     C_R   0.500004 0.364893 0.500005 -0.081545
C22   C     C_R   0.000005 0.864896 0.500006 -0.081471
C23   C     C_R   0.536639 0.295851 0.525132 0.064518
C24   C     C_3   0.226105 0.994642 0.179265 0.007154
C25   C     C_R   0.463375 0.295852 0.474883 0.064510
C26   C     C_R   0.036597 0.795855 0.524938 0.064538
C27   C     C_R   0.963420 0.795856 0.475081 0.064532
C28   C     C_3   0.274470 0.462315 0.744971 -0.464915
C29   C     C_3   0.725530 0.463180 0.256125 -0.464548
C30   C     C_3   0.774471 0.962607 0.744607 -0.464659
C31   C     C_3   0.225530 0.963329 0.256300 -0.464371
C32   C     C_R   0.500008 0.272378 0.500008 0.115052
C33   C     C_R   0.000009 0.772382 0.500010 0.115039
C34   C     C_R   0.572731 0.273293 0.548684 -0.265173
C35   C     C_1   0.162897 0.500663 0.662251 0.082220
C36   C     C_R   0.427283 0.273297 0.451330 -0.265156
C37   C     C_R   0.072640 0.773298 0.548286 -0.265173
C38   C     C_R   0.927379 0.773300 0.451736 -0.265157
C39   C     C_R   0.073625 0.727304 0.548736 0.462154
C40   C     C_R   0.926398 0.727307 0.451287 0.462224
C41   C     C_R   0.573720 0.227299 0.549149 0.462189
C42   C     C_R   0.426297 0.227303 0.450862 0.462244
C43   C     C_R   0.037839 0.702648 0.527034 -0.047712
C44   C     C_R   0.962184 0.702652 0.472981 -0.047739
C45   C     C_R   0.537879 0.202645 0.527242 -0.047696
C46   C     C_1   0.837100 0.500690 0.337752 0.081782
C47   C     C_R   0.462138 0.202649 0.472765 -0.047720
C48   C     C_R   0.000011 0.725767 0.500009 -0.147702
C49   C     C_R   0.500009 0.225764 0.500006 -0.147692
C50   C     C_R   0.037990 0.656176 0.531300 0.327822
C51   C     C_R   0.962030 0.656183 0.468702 0.327827
C52   C     C_R   0.538015 0.156174 0.531502 0.327786
C53   C     C_R   0.462000 0.156181 0.468496 0.327790
C54   C     C_R   0.000009 0.633951 0.500005 -0.252174
C55   C     C_R   0.500007 0.133949 0.500003 -0.252106
C56   C     C_R   0.537941 0.658138 0.541977 -0.238433
C57   C     C_1   0.662898 0.000675 0.662253 0.082154
C58   C     C_R   0.462052 0.658142 0.458022 -0.238459
C59   C     C_R   0.037981 0.158143 0.541581 -0.238435
C60   C     C_R   0.962012 0.158147 0.458418 -0.238449
C61   C     C_R   0.499997 0.635155 0.499999 -0.085054
C62   C     C_R   0.999997 0.135159 0.499999 -0.085090
C63   C     C_R   0.461811 0.704189 0.457689 0.116745
C64   C     C_R   0.538181 0.704184 0.542312 0.116738
C65   C     C_R   0.961770 0.204193 0.458094 0.116736
C66   C     C_R   0.038221 0.204189 0.541907 0.116735
C67   C     C_3   0.225977 0.464252 0.693230 0.260893
C68   C     C_1   0.337100 0.000698 0.337749 0.081787
C69   C     C_3   0.774025 0.465184 0.307783 0.260772
C70   C     C_3   0.725978 0.964571 0.692889 0.260658
C71   C     C_3   0.274026 0.965348 0.307946 0.260571
C72   C     C_R   0.499996 0.727479 0.500000 0.115028
C73   C     C_R   0.999996 0.227484 0.500000 0.115039
C74   C     C_R   0.423985 0.727167 0.415686 -0.223189
C75   C     C_R   0.576007 0.727157 0.584315 -0.223220
C76   C     C_R   0.923902 0.227172 0.416500 -0.223231
C77   C     C_R   0.076090 0.227162 0.583502 -0.223275
C78   C     C_R   0.923673 0.273202 0.416162 -0.092696
C79   C     C_1   0.337065 0.500711 0.836334 0.079479
C80   C     C_R   0.076318 0.273191 0.583840 -0.092662
C81   C     C_R   0.423759 0.773197 0.415339 -0.092666
C82   C     C_R   0.576233 0.773187 0.584663 -0.092633
C83   C     C_R   0.961440 0.297094 0.457606 0.034758
C84   C     C_R   0.038551 0.297089 0.542395 0.034666
C85   C     C_R   0.461484 0.797090 0.457188 0.034764
C86   C     C_R   0.538508 0.797084 0.542813 0.034683
C87   C     C_R   0.999996 0.273970 0.500000 -0.054162
C88   C     C_R   0.499996 0.773966 0.500000 -0.054193
C89   C     C_R   0.961668 0.343461 0.457799 0.271112
C90   C     C_1   0.662934 0.500705 0.163621 0.079475
C91   C     C_R   0.038323 0.343455 0.542201 0.270976
C92   C     C_R   0.461713 0.843457 0.457379 0.271270
C93   C     C_R   0.538279 0.843451 0.542621 0.271148
C94   C     C_R   0.999996 0.365887 0.499998 -0.224824
C95   C     C_R   0.499997 0.865884 0.499999 -0.224859
C96   C     C_1   0.125395 0.500203 0.625257 -0.026773
C97   C     C_1   0.874603 0.500215 0.374747 -0.026939
C98   C     C_1   0.625396 0.000208 0.625257 -0.026816
C99   C     C_1   0.374603 0.000219 0.374746 -0.026945
C100  C     C_3   0.291245 0.501610 0.790035 0.012739
C101  C     C_1   0.837065 0.000713 0.836353 0.079504
C102  C     C_3   0.708754 0.501625 0.209908 0.012818
C103  C     C_3   0.791245 0.001619 0.790059 0.012685
C104  C     C_3   0.208754 0.001629 0.209894 0.012748
C105  C     C_3   0.225229 0.547131 0.707171 -0.121161
C106  C     C_3   0.774751 0.547615 0.291496 -0.121026
C107  C     C_3   0.725234 0.047304 0.707628 -0.121057
C108  C     C_3   0.274749 0.047697 0.291264 -0.120941
C109  C     C_3   0.208691 0.501228 0.707055 0.010728
C110  C     C_3   0.791306 0.501274 0.292927 0.010745
C111  C     C_3   0.708692 0.001248 0.707066 0.010699
C112  C     C_R   0.500427 0.500009 0.086979 0.936612
C113  C     C_1   0.162934 0.000706 0.163610 0.079486
C114  C     C_3   0.291306 0.001286 0.292918 0.010711
C115  C     C_1   0.374576 0.500186 0.874202 -0.058412
C116  C     C_1   0.625423 0.500177 0.125771 -0.058130
C117  C     C_1   0.874576 0.000186 0.874213 -0.058284
C118  C     C_1   0.125423 0.000176 0.125764 -0.058071
C119  C     C_R   0.534695 0.484155 0.692868 -0.206378
C120  C     C_R   0.465234 0.484337 0.307054 -0.206346
C121  C     C_R   0.034733 0.984246 0.692909 -0.206335
C122  C     C_R   0.965226 0.984357 0.307045 -0.206308
C123  C     C_R   0.499802 0.500112 0.634842 -0.078081
C124  C     C_R   0.999573 0.000010 0.913020 0.936555
C125  C     C_R   0.500198 0.500116 0.365152 -0.078213
C126  C     C_R   0.999802 0.000112 0.634845 -0.078132
C127  C     C_R   0.000198 0.000115 0.365152 -0.078214
C128  C     C_R   0.464649 0.516080 0.622379 -0.237059
C129  C     C_R   0.535420 0.515907 0.377682 -0.237109
C130  C     C_R   0.964612 0.015989 0.622345 -0.237094
C131  C     C_R   0.035429 0.015886 0.377690 -0.237144
C132  C     C_R   0.464245 0.516478 0.668067 0.136644
C133  C     C_R   0.535827 0.516300 0.331997 0.136687
C134  C     C_R   0.964207 0.016385 0.668032 0.136673
C135  C     C_R   0.000427 0.000009 0.086979 0.936632
C136  C     C_R   0.035837 0.016278 0.332005 0.136719
C137  C     C_R   0.499210 0.500038 0.726571 0.088896
C138  C     C_R   0.500788 0.500042 0.273420 0.088901
C139  C     C_R   0.999211 0.000038 0.726576 0.088910
C140  C     C_R   0.000788 0.000041 0.273419 0.088908
C141  C     C_R   0.419010 0.500016 0.918970 0.906598
C142  C     C_R   0.580990 0.500012 0.081025 0.906869
C143  C     C_R   0.919010 0.000015 0.918972 0.906690
C144  C     C_R   0.080990 0.000012 0.081024 0.906870
C145  C     C_R   0.534494 0.483651 0.738803 0.043767
C146  C     C_3   0.225421 0.493573 0.771534 -0.428744
C147  C     C_R   0.465431 0.483839 0.261115 0.043712
C148  C     C_R   0.034533 0.983745 0.738847 0.043751
C149  C     C_R   0.965422 0.983859 0.261105 0.043705
C150  C     C_R   0.429461 0.533090 0.656061 -0.219948
C151  C     C_R   0.570689 0.532726 0.344079 -0.220053
C152  C     C_R   0.929382 0.032901 0.655985 -0.219996
C153  C     C_R   0.070707 0.032681 0.344097 -0.220086
C154  C     C_R   0.429118 0.533611 0.701808 -0.120912
C155  C     C_R   0.571036 0.533239 0.298337 -0.121157
C156  C     C_R   0.929037 0.033420 0.701731 -0.120975
C157  C     C_3   0.774594 0.492276 0.228695 -0.428423
C158  C     C_R   0.071056 0.033192 0.298356 -0.121188
C159  C     C_R   0.463554 0.517182 0.760384 0.055797
C160  C     C_R   0.536525 0.516991 0.239686 0.056029
C161  C     C_R   0.963513 0.017085 0.760347 0.055893
C162  C     C_R   0.036536 0.016967 0.239696 0.056075
C163  C     C_R   0.498870 0.499977 0.772711 -0.044632
C164  C     C_R   0.501128 0.499980 0.227279 -0.044677
C165  C     C_R   0.998871 0.999978 0.772716 -0.044652
C166  C     C_R   0.001129 0.999979 0.227279 -0.044679
C167  C     C_R   0.533805 0.482678 0.830995 0.022092
C168  C     C_3   0.725415 0.993133 0.771465 -0.428472
C169  C     C_R   0.466110 0.482870 0.168914 0.022070
C170  C     C_R   0.033850 0.982775 0.831043 0.022131
C171  C     C_R   0.966101 0.982892 0.168904 0.022096
C172  C     C_R   0.568838 0.466146 0.842603 0.407026
C173  C     C_R   0.431002 0.466524 0.157230 0.407082
C174  C     C_R   0.068922 0.966336 0.842692 0.407053
C175  C     C_R   0.930983 0.966567 0.157211 0.407090
C176  C     C_R   0.568959 0.466921 0.796528 -0.240893
C177  C     C_R   0.430887 0.467294 0.203312 -0.240959
C178  C     C_R   0.069040 0.967108 0.796613 -0.240885
C179  C     C_3   0.274596 0.992061 0.228731 -0.428197
C180  C     C_R   0.930869 0.967336 0.203293 -0.240925
C181  C     C_R   0.463665 0.517444 0.806987 0.322827
C182  C     C_R   0.536418 0.517245 0.193087 0.322771
C183  C     C_R   0.963624 0.017345 0.806950 0.322805
C184  C     C_R   0.036430 0.017219 0.193097 0.322765
C185  C     C_R   0.498438 0.500055 0.864277 -0.149452
C186  C     C_R   0.501560 0.500050 0.135716 -0.149161
C187  C     C_R   0.998440 0.000054 0.864282 -0.149299
C188  C     C_R   0.001561 0.000049 0.135716 -0.149100
C189  C     C_3   0.274617 0.546387 0.753060 0.414353
C190  C     C_3   0.273910 0.496257 0.820899 0.006765
C191  C     C_3   0.725357 0.546981 0.245544 0.413803
C192  C     C_3   0.774623 0.046596 0.753530 0.414170
C193  C     C_3   0.225354 0.047079 0.245306 0.413715
C194  C     C_R   0.532789 0.482532 0.876129 -0.234876
C195  C     C_R   0.467124 0.482721 0.123778 -0.235099
C196  C     C_R   0.032835 0.982627 0.876179 -0.234898
C197  C     C_R   0.967114 0.982743 0.123767 -0.235066
C198  C     C_R   0.000005 0.586319 0.500004 1.019241
C199  C     C_R   0.500004 0.086318 0.500004 1.019298
C200  C     C_R   0.080978 0.499847 0.580949 0.954785
Cl1   Cl    Cl    0.295218 0.593208 0.803608 -0.537198
Cl2   Cl    Cl    0.386254 0.445000 0.085577 -0.549244
Cl3   Cl    Cl    0.113620 0.944694 0.914299 -0.549900
Cl4   Cl    Cl    0.886224 0.945071 0.085545 -0.549417
Cl5   Cl    Cl    0.119341 0.704596 0.570360 -0.451171
Cl6   Cl    Cl    0.880693 0.704594 0.429690 -0.451239
Cl7   Cl    Cl    0.619527 0.204586 0.571063 -0.451175
Cl8   Cl    Cl    0.380495 0.204589 0.428957 -0.451234
Cl9   Cl    Cl    0.084756 0.624081 0.579679 -0.524998
Cl10  Cl    Cl    0.915258 0.624109 0.420262 -0.524698
Cl11  Cl    Cl    0.584776 0.124082 0.580094 -0.524989
Cl12  Cl    Cl    0.704799 0.592896 0.193624 -0.538547
Cl13  Cl    Cl    0.415236 0.124105 0.419857 -0.524737
Cl14  Cl    Cl    0.914325 0.374225 0.405941 -0.567049
Cl15  Cl    Cl    0.085665 0.374212 0.594064 -0.566185
Cl16  Cl    Cl    0.414417 0.874219 0.405029 -0.567334
Cl17  Cl    Cl    0.585575 0.874206 0.594975 -0.566583
Cl18  Cl    Cl    0.203873 0.410719 0.682989 -0.511978
Cl19  Cl    Cl    0.796110 0.411333 0.319487 -0.512202
Cl20  Cl    Cl    0.703878 0.910925 0.682144 -0.512356
Cl21  Cl    Cl    0.296111 0.911449 0.319902 -0.512552
Cl22  Cl    Cl    0.795213 0.093117 0.804541 -0.537519
Cl23  Cl    Cl    0.204799 0.092838 0.193160 -0.538614
Cl24  Cl    Cl    0.420209 0.537933 0.794132 -0.582976
Cl25  Cl    Cl    0.579974 0.537486 0.206034 -0.584666
Cl26  Cl    Cl    0.920119 0.037714 0.794049 -0.583596
Cl27  Cl    Cl    0.079999 0.037428 0.206057 -0.584915
Cl28  Cl    Cl    0.613483 0.444381 0.914157 -0.549791
H1    H     H_    0.216072 0.571785 0.723747 0.210089
H2    H     H_    0.438170 0.471851 0.297911 0.166694
H3    H     H_    0.061769 0.971693 0.702024 0.166629
H4    H     H_    0.938155 0.971887 0.297895 0.166707
H5    H     H_    0.437843 0.528712 0.577336 0.164169
H6    H     H_    0.562284 0.528401 0.422779 0.164252
H7    H     H_    0.937775 0.028550 0.577274 0.164185
H8    H     H_    0.062300 0.028364 0.422793 0.164225
H9    H     H_    0.402511 0.545829 0.611251 0.164272
H10   H     H_    0.597696 0.545324 0.388947 0.164168
H11   H     H_    0.902401 0.045567 0.611144 0.164214
H12   H     H_    0.783952 0.571554 0.274313 0.209588
H13   H     H_    0.097722 0.045262 0.388971 0.164125
H14   H     H_    0.401633 0.546917 0.690641 0.214857
H15   H     H_    0.598584 0.546396 0.309565 0.214633
H16   H     H_    0.901519 0.046650 0.690531 0.214773
H17   H     H_    0.098612 0.046332 0.309592 0.214589
H18   H     H_    0.558853 0.469525 0.921257 0.209912
H19   H     H_    0.440997 0.469858 0.078587 0.209810
H20   H     H_    0.058932 0.969694 0.921340 0.209830
H21   H     H_    0.940980 0.969898 0.078568 0.209777
H22   H     H_    0.596033 0.454288 0.805837 0.192074
H23   H     H_    0.716065 0.071715 0.724420 0.210017
H24   H     H_    0.403756 0.454803 0.193945 0.192102
H25   H     H_    0.096144 0.954547 0.805953 0.192068
H26   H     H_    0.903732 0.954861 0.193920 0.192096
H27   H     H_    0.435315 0.359928 0.455741 0.168747
H28   H     H_    0.564694 0.359926 0.544272 0.168738
H29   H     H_    0.935392 0.859934 0.456080 0.168676
H30   H     H_    0.064618 0.859933 0.543934 0.168670
H31   H     H_    0.600286 0.291669 0.565787 0.191563
H32   H     H_    0.399728 0.291674 0.434228 0.191558
H33   H     H_    0.100155 0.791675 0.565236 0.191561
H34   H     H_    0.283953 0.071512 0.273975 0.209605
H35   H     H_    0.899863 0.791677 0.434790 0.191552
H36   H     H_    0.567308 0.640245 0.574572 0.170939
H37   H     H_    0.432686 0.640253 0.425427 0.170935
H38   H     H_    0.067381 0.140253 0.573861 0.170967
H39   H     H_    0.932613 0.140260 0.426138 0.170965
H40   H     H_    0.394510 0.709516 0.383008 0.165706
H41   H     H_    0.605483 0.709501 0.616994 0.165719
H42   H     H_    0.894394 0.209520 0.384135 0.165704
H43   H     H_    0.105597 0.209506 0.615867 0.165717
H44   H     H_    0.893655 0.289661 0.383165 0.220011
H45   H     H_    0.214580 0.460832 0.773134 0.264799
H46   H     H_    0.106337 0.289646 0.616837 0.220192
H47   H     H_    0.393774 0.789656 0.382016 0.219895
H48   H     H_    0.606218 0.789641 0.617986 0.220050
H49   H     H_    0.284722 0.430418 0.770159 0.258521
H50   H     H_    0.715253 0.430856 0.231886 0.258490
H51   H     H_    0.784729 0.930562 0.769478 0.258509
H52   H     H_    0.215252 0.930937 0.232220 0.258486
H53   H     H_    0.288139 0.462654 0.724723 0.191868
H54   H     H_    0.711879 0.464545 0.276373 0.192075
H55   H     H_    0.788137 0.963287 0.724360 0.191943
H56   H     H_    0.785481 0.459220 0.228054 0.264955
H57   H     H_    0.211881 0.964862 0.276543 0.192108
H58   H     H_    0.217140 0.472187 0.649576 0.152199
H59   H     H_    0.782881 0.474074 0.351218 0.152083
H60   H     H_    0.717139 0.972835 0.649310 0.152130
H61   H     H_    0.282883 0.974399 0.351340 0.152042
H62   H     H_    0.283265 0.525441 0.850475 0.195071
H63   H     H_    0.716715 0.523427 0.148771 0.195274
H64   H     H_    0.783265 0.024772 0.850733 0.195168
H65   H     H_    0.216714 0.023093 0.148649 0.195352
H66   H     H_    0.212286 0.518956 0.781364 0.185715
H67   H     H_    0.714564 0.960280 0.772742 0.264928
H68   H     H_    0.787700 0.517032 0.218146 0.185493
H69   H     H_    0.712285 0.018302 0.781538 0.185704
H70   H     H_    0.287700 0.016708 0.218063 0.185525
H71   H     H_    0.285489 0.958953 0.228252 0.265055
H72   H     H_    0.561702 0.471532 0.701950 0.166574
I1    I     I_    0.191282 0.572527 0.615870 -0.117278
I2    I     I_    0.700367 0.437884 0.119340 -0.203001
I3    I     I_    0.799696 0.939516 0.881939 -0.202264
I4    I     I_    0.200377 0.937485 0.119651 -0.202957
I5    I     I_    0.808621 0.574533 0.382070 -0.114467
I6    I     I_    0.691307 0.073232 0.616572 -0.116646
I7    I     I_    0.308609 0.074877 0.381709 -0.114338
I8    I     I_    0.299550 0.555217 0.711128 -0.128931
I9    I     I_    0.700311 0.557804 0.287024 -0.127823
I10   I     I_    0.799585 0.056093 0.711731 -0.128560
I11   I     I_    0.200295 0.058229 0.286714 -0.127694
I12   I     I_    0.299719 0.440340 0.882550 -0.202163
O1    O     O_R   0.499980 0.537310 0.933900 -0.582427
O2    O     O_R   0.465350 0.499980 0.399260 -0.622065
O3    O     O_R   0.034650 0.999980 0.600740 -0.621979
O4    O     O_R   0.965350 0.999980 0.399260 -0.622009
O5    O     O_R   0.465330 0.566050 0.465280 -0.626246
O6    O     O_R   0.534670 0.566050 0.534720 -0.626235
O7    O     O_R   0.965330 0.066050 0.465280 -0.626271
O8    O     O_R   0.034670 0.066050 0.534720 -0.626269
O9    O     O_R   0.499970 0.462690 0.933870 -0.617129
O10   O     O_R   0.500030 0.462690 0.066130 -0.616976
O11   O     O_R   0.999970 0.962690 0.933870 -0.617066
O12   O     O_R   0.500020 0.537310 0.066100 -0.582803
O13   O     O_R   0.000030 0.962690 0.066130 -0.616962
O14   O     O_R   0.438570 0.537300 0.938570 -0.581094
O15   O     O_R   0.561430 0.537300 0.061430 -0.581170
O16   O     O_R   0.938570 0.037300 0.938570 -0.581137
O17   O     O_R   0.061430 0.037300 0.061430 -0.581182
O18   O     O_R   0.438560 0.462690 0.938540 -0.618169
O19   O     O_R   0.561440 0.462690 0.061460 -0.617925
O20   O     O_R   0.938560 0.962690 0.938540 -0.618090
O21   O     O_R   0.061440 0.962690 0.061460 -0.617903
O22   O     O_R   0.999990 0.565940 0.462670 -0.598900
O23   O     O_R   0.999980 0.037310 0.933900 -0.582533
O24   O     O_R   0.000010 0.565940 0.537330 -0.599081
O25   O     O_R   0.499990 0.065940 0.462670 -0.598947
O26   O     O_R   0.500010 0.065940 0.537330 -0.599095
O27   O     O_R   0.061410 0.499850 0.524090 -0.600738
O28   O     O_R   0.938590 0.499850 0.475910 -0.600647
O29   O     O_R   0.561410 0.999850 0.524090 -0.601162
O30   O     O_R   0.438590 0.999850 0.475910 -0.601084
O31   O     O_R   0.061430 0.499870 0.598720 -0.610660
O32   O     O_R   0.938570 0.499870 0.401280 -0.610814
O33   O     O_R   0.561430 0.999870 0.598720 -0.610222
O34   O     O_R   0.000020 0.037310 0.066100 -0.582806
O35   O     O_R   0.438570 0.999870 0.401280 -0.610349
O36   O     O_R   0.999980 0.433770 0.462660 -0.600862
O37   O     O_R   0.000020 0.433770 0.537340 -0.600606
O38   O     O_R   0.499980 0.933770 0.462660 -0.600741
O39   O     O_R   0.500020 0.933770 0.537340 -0.600526
O40   O     O_R   0.465300 0.433880 0.465270 -0.623527
O41   O     O_R   0.534700 0.433880 0.534730 -0.623568
O42   O     O_R   0.965300 0.933880 0.465270 -0.623497
O43   O     O_R   0.034700 0.933880 0.534730 -0.623528
O44   O     O_R   0.465290 0.499990 0.531320 -0.623444
O45   O     O_R   0.534710 0.499990 0.468680 -0.623505
O46   O     O_R   0.965290 0.999990 0.531320 -0.623534
O47   O     O_R   0.034710 0.999990 0.468680 -0.623572
O48   O     O_R   0.534650 0.499980 0.600740 -0.622014
Zn1   Zn    Zn3+2 0.500000 0.549820 0.000000 1.119415
Zn2   Zn    Zn3+2 0.546320 0.499970 0.546370 0.989517
Zn3   Zn    Zn3+2 0.953680 0.999970 0.453630 0.989539
Zn4   Zn    Zn3+2 0.046320 0.999970 0.546370 0.989490
Zn5   Zn    Zn3+2 0.000000 0.049820 0.000000 1.119371
Zn6   Zn    Zn3+2 0.500000 0.450170 0.000000 1.049148
Zn7   Zn    Zn3+2 0.000000 0.950170 0.000000 1.049287
Zn8   Zn    Zn3+2 0.999980 0.499850 0.450150 1.090291
Zn9   Zn    Zn3+2 0.000020 0.499850 0.549850 1.090477
Zn10  Zn    Zn3+2 0.499980 0.999850 0.450150 1.090337
Zn11  Zn    Zn3+2 0.500020 0.999850 0.549850 1.090499
Zn12  Zn    Zn3+2 0.453680 0.499970 0.453630 0.989570

loop_
_geom_bond_atom_site_label_1
_geom_bond_atom_site_label_2
_ccdc_geom_bond_type
C135  O13   A    
O1    Zn1   S    
C115  C141  S    
C71   Cl21  S    
C18   C21   A    
C132  C150  A    
C36   C42   A    
C133  C151  A    
C119  H72   S    
C136  C140  A    
C178  H25   S    
C10   O44   A    
C5    O35   A    
C59   C66   A    
C176  H22   S    
C86   C88   A    
C12   C126  S    
C130  H7    S    
C60   C62   A    
C89   C94   A    
O21   Zn7   S    
C91   Cl15  S    
C72   C88   A    
C85   C92   A    
C55   C199  S    
C152  C156  A    
C50   Cl9   S    
C6    C94   S    
O44   Zn12  S    
C107  C192  S    
C104  C193  S    
C108  H34   S    
C84   C91   A    
C151  C155  A    
C13   C103  S    
C14   O4    A    
C142  O15   A    
C35   C109  S    
C47   C53   A    
C58   C61   A    
C101  C103  S    
C196  H20   S    
C14   O47   A    
C130  C134  A    
C29   C69   S    
C124  O23   A    
C122  C149  A    
C105  C189  S    
C120  H2    S    
C3    O28   A    
C120  C125  A    
O36   Zn8   S    
C18   H28   S    
C132  C137  A    
C195  H19   S    
C17   C21   A    
C41   Cl7   S    
C8    O40   A    
C197  H21   S    
C28   C67   S    
O5    Zn12  S    
C102  C191  S    
C15   C61   S    
O37   Zn9   S    
C159  C181  A    
C110  C157  S    
C116  C142  S    
O11   Zn7   S    
C60   C65   A    
C119  C123  A    
C46   C110  S    
C74   C81   A    
O7    Zn3   S    
C170  C174  A    
C66   C77   A    
C12   O3    A    
C67   Cl18  S    
C100  C190  S    
C19   H29   S    
C182  Cl25  S    
C63   C74   A    
C1    C185  S    
C17   C25   A    
C179  H71   S    
C192  I10   S    
C9    O43   A    
C91   C94   A    
C136  C153  A    
C112  O10   A    
C57   C111  S    
C2    C157  S    
C29   C102  S    
C127  C131  A    
C109  C146  S    
C25   C36   A    
C125  C129  A    
C200  O31   A    
C194  H18   S    
C41   C45   A    
O22   Zn8   S    
C24   C104  S    
C161  C165  A    
C44   C48   A    
C89   Cl14  S    
C8    O41   A    
O28   Zn9   S    
C191  I9    S    
C153  H13   S    
C82   H48   S    
C6    O37   A    
C146  H66   S    
C169  C195  A    
C35   C96   T    
C27   C33   A    
C157  H68   S    
C76   C78   A    
C175  Cl4   S    
C2    C102  S    
C93   Cl17  S    
C122  C127  A    
C139  C165  A    
C7    O38   A    
C90   C102  S    
C156  H16   S    
O39   Zn11  S    
C29   H54   S    
C199  O25   A    
C56   C64   A    
O47   Zn4   S    
C23   C34   A    
C10   O48   A    
C93   C95   A    
C143  O16   A    
C15   O6    A    
C107  I6    S    
C83   C89   A    
C139  C148  A    
O23   Zn5   S    
C189  I8    S    
C131  C136  A    
C134  C139  A    
C137  C163  A    
C112  O12   A    
C13   C168  S    
C16   O8    A    
C45   C52   A    
C177  H24   S    
O25   Zn10  S    
C86   C93   A    
C71   H61   S    
C69   C110  S    
C147  C177  A    
C26   C33   A    
C150  H9    S    
O10   Zn6   S    
C31   H52   S    
C70   Cl20  S    
C124  O11   A    
C156  C161  A    
C90   C116  T    
C198  O24   A    
C85   C88   A    
C128  H5    S    
C96   C200  S    
C151  H10   S    
C105  C109  S    
C168  H67   S    
C148  C178  A    
C135  O34   A    
C107  C111  S    
O18   Zn6   S    
C75   C82   A    
C175  C180  A    
O6    Zn2   S    
O3    Zn4   S    
O34   Zn5   S    
C129  H6    S    
C31   C104  S    
C192  Cl22  S    
C154  C159  A    
C38   H35   S    
C170  C196  A    
O13   Zn7   S    
C152  H11   S    
C58   H37   S    
C30   H55   S    
C64   C75   A    
C159  C163  A    
C36   H32   S    
C32   C49   A    
O31   Zn9   S    
C190  I12   S    
C104  C113  S    
C40   C44   A    
C13   H64   S    
C169  C173  A    
O27   Zn8   S    
O40   Zn12  S    
C4    O29   A    
C140  C149  A    
C81   C85   A    
C172  C176  A    
C155  H15   S    
C83   C87   A    
O33   Zn11  S    
C12   O46   A    
C121  H3    S    
C187  C196  A    
C185  C194  A    
C80   C84   A    
C28   H49   S    
C11   O45   A    
O43   Zn4   S    
C50   C54   A    
C65   C76   A    
C5    O30   A    
C160  C164  A    
C137  C145  A    
O29   Zn10  S    
C11   C125  S    
O26   Zn11  S    
C67   H58   S    
C79   C115  T    
C200  O27   A    
C126  C130  A    
C27   C38   A    
C58   C63   A    
C141  O18   A    
C182  C186  A    
C108  C114  S    
C73   C87   A    
C162  C166  A    
C78   C83   A    
C5    C99   S    
O19   Zn6   S    
C76   H42   S    
C30   C103  S    
C53   Cl13  S    
C77   H43   S    
C42   Cl8   S    
C158  H17   S    
C78   H44   S    
C198  O22   A    
C7    O39   A    
C174  C178  A    
C52   C55   A    
C133  C138  A    
C106  H12   S    
C31   H57   S    
C34   C41   A    
C30   C70   S    
O8    Zn4   S    
C140  C166  A    
C28   H53   S    
C79   C100  S    
C10   C123  S    
C180  H26   S    
C29   H50   S    
C82   C86   A    
C149  C180  A    
C14   C127  S    
C71   C114  S    
C173  Cl2   S    
C105  H1    S    
C161  C183  A    
C162  C184  A    
C9    O42   A    
C183  C187  A    
C3    C97   S    
C145  C176  A    
C45   C49   A    
C134  C152  A    
C143  O20   A    
C121  C148  A    
C43   C50   A    
O4    Zn3   S    
C157  H56   S    
C69   H59   S    
C46   C97   T    
C20   C22   A    
C144  O21   A    
C70   H60   S    
C77   C80   A    
C165  C170  A    
O16   Zn5   S    
C117  C143  S    
C69   Cl19  S    
O14   Zn1   S    
C1    O9    A    
C26   C37   A    
C167  C172  A    
C131  H8    S    
C119  C145  A    
C11   O2    A    
C122  H4    S    
O35   Zn10  S    
C107  H23   S    
C101  C117  T    
C23   C32   A    
C37   C39   A    
C38   C40   A    
C172  Cl28  S    
C51   Cl10  S    
C190  H62   S    
C188  C197  A    
C57   C98   T    
C92   Cl16  S    
C37   H33   S    
C70   C111  S    
C24   I4    S    
C193  Cl23  S    
O24   Zn9   S    
C120  C147  A    
C114  C179  S    
C105  I1    S    
C33   C48   A    
C56   C61   A    
C111  C168  S    
C184  Cl27  S    
C20   H30   S    
C154  H14   S    
C4    C98   S    
C100  C189  S    
C84   C87   A    
C146  H45   S    
C142  O19   A    
O48   Zn2   S    
C24   H65   S    
C15   O5    A    
C47   C49   A    
C30   H51   S    
C56   H36   S    
C118  C144  S    
C112  C186  S    
C9    C22   S    
O38   Zn10  S    
C153  C158  A    
C65   C73   A    
C4    O33   A    
C193  I11   S    
C174  Cl3   S    
C3    O32   A    
C74   H40   S    
C67   C109  S    
C108  I7    S    
C52   Cl11  S    
C19   C27   A    
C43   C48   A    
C191  Cl12  S    
C28   C100  S    
C25   C32   A    
C166  C171  A    
C181  Cl24  S    
O2    Zn12  S    
C164  C169  A    
C16   C62   S    
C106  C191  S    
C6    O36   A    
C128  C132  A    
C183  Cl26  S    
C160  C182  A    
C63   C72   A    
C53   C55   A    
O9    Zn6   S    
C40   Cl6   S    
C141  O14   A    
C18   C23   A    
C186  C195  A    
C19   C22   A    
C181  C185  A    
C39   C43   A    
C75   H41   S    
C189  Cl1   S    
C66   C73   A    
C171  C175  A    
C92   C95   A    
C2    I2    S    
O42   Zn3   S    
C184  C188  A    
O30   Zn11  S    
C81   H47   S    
C2    H63   S    
C163  C167  A    
C106  I5    S    
C173  C177  A    
C138  C147  A    
C199  O26   A    
C24   C179  S    
C80   H46   S    
C8    C21   S    
O46   Zn3   S    
O41   Zn2   S    
C44   C51   A    
C1    O1    A    
O15   Zn1   S    
C167  C194  A    
C129  C133  A    
O12   Zn1   S    
C144  O17   A    
C135  C188  S    
C106  C110  S    
O45   Zn2   S    
C17   H27   S    
C59   C62   A    
C59   H38   S    
C155  C160  A    
C179  H70   S    
C124  C187  S    
O17   Zn5   S    
C16   O7    A    
C7    C95   S    
C54   C198  S    
C51   C54   A    
C68   C99   T    
C121  C126  A    
C171  C197  A    
C123  C128  A    
C20   C26   A    
O20   Zn7   S    
C39   Cl5   S    
C31   C71   S    
C168  H69   S    
C34   H31   S    
C42   C47   A    
C64   C72   A    
C158  C162  A    
C113  C118  T    
O32   Zn8   S    
C150  C154  A    
C13   I3    S    
C146  C190  S    
C138  C164  A    
C103  C192  S    
C60   H39   S    
C108  C193  S    
C68   C114  S    
