data_mof_unit_pretest_176.cif
_audit_creation_date              2013-03-05T16:48:15-0500
_audit_creation_method            fapswitch 2.2
_symmetry_space_group_name_H-M    P1
_symmetry_Int_Tables_number       1
_space_group_crystal_system       triclinic
_cell_length_a                    23.285695
_cell_length_b                    8.929254
_cell_length_c                    8.098826
_cell_angle_alpha                 89.947561
_cell_angle_beta                  89.938021
_cell_angle_gamma                 90.002477
_cell_volume                      1683.93767549

loop_
_atom_site_label
_atom_site_type_symbol
_atom_site_description
_atom_site_fract_x
_atom_site_fract_y
_atom_site_fract_z
_atom_type_partial_charge
O1    O     O_R   0.500000 0.285350 0.636850 -0.616472
O2    O     O_R   0.500000 0.714650 0.363150 -0.618263
O3    O     O_R   0.500000 0.714650 0.636850 -0.617751
O4    O     O_R   0.500000 0.285350 0.363150 -0.610968
H1    H     H_    0.947592 0.270644 0.887065 0.201746
H2    H     H_    0.052991 0.510144 0.094245 0.205393
H3    H     H_    0.948738 0.512386 0.094229 0.205350
H4    H     H_    0.051970 0.270223 0.887772 0.200972
C1    C     C_R   0.499949 0.217970 0.500041 0.933434
C2    C     C_R   0.499969 0.782038 0.499952 0.922507
O5    O     O_R   0.416160 0.500000 0.636910 -0.616423
O6    O     O_R   0.583840 0.500000 0.363090 -0.602722
O7    O     O_R   0.583840 0.500000 0.636910 -0.607712
O8    O     O_R   0.416160 0.500000 0.363090 -0.598617
C3    C     C_R   0.209323 0.427108 0.504159 -0.015440
C4    C     C_R   0.791020 0.427558 0.501441 -0.002042
C5    C     C_R   0.389050 0.500115 0.500035 0.952333
C6    C     C_R   0.610982 0.497889 0.499849 0.980030
Zn1   Zn    Zn3+2 0.500000 0.500000 0.682780 1.011464
Zn2   Zn    Zn3+2 0.500000 0.500000 0.317220 1.017103
C7    C     C_R   0.290311 0.583094 0.580350 -0.063278
C8    C     C_R   0.696417 0.357894 0.404131 -0.071531
C9    C     C_R   0.304661 0.351537 0.422417 -0.070080
C10   C     C_R   0.708230 0.566765 0.597078 -0.086341
C11   C     C_R   0.327168 0.480155 0.499894 -0.224966
C12   C     C_R   0.672838 0.475319 0.499276 -0.204395
C13   C     C_R   0.880461 0.446129 0.354253 0.625185
C14   C     C_R   0.120385 0.357413 0.635136 0.632168
C15   C     C_R   0.879871 0.358400 0.633557 0.630192
C16   C     C_R   0.120601 0.441836 0.354602 0.623453
N1    N     N_R   0.851792 0.408461 0.495877 -0.316988
N2    N     N_R   0.148786 0.405664 0.497184 -0.315340
C17   C     C_R   0.939814 0.349786 0.634406 -0.043493
C18   C     C_R   0.060750 0.435190 0.348477 -0.041227
C19   C     C_R   0.940288 0.437498 0.348380 -0.044002
C20   C     C_R   0.060437 0.348900 0.635105 -0.042326
C21   C     C_R   0.970141 0.391444 0.490875 -0.006022
C22   C     C_R   0.030495 0.390619 0.491068 -0.004359
C23   C     C_R   0.970018 0.303953 0.775678 -0.141965
C24   C     C_R   0.030586 0.476244 0.205460 -0.145044
C25   C     C_R   0.970833 0.477587 0.205479 -0.145029
C26   C     C_R   0.029844 0.303692 0.776090 -0.143512
C27   C     C_1   0.499930 0.065204 0.500045 -0.184807
C28   C     C_1   0.499937 0.934821 0.499920 -0.179547
C29   C     C_R   0.231402 0.554188 0.582445 0.647929
C30   C     C_R   0.755825 0.334672 0.406541 0.615683
C31   C     C_R   0.245633 0.325994 0.424777 0.613679
C32   C     C_R   0.767458 0.542943 0.596675 0.612125
N3    N     N_1   0.500000 0.500000 0.073640 -0.020156
N4    N     N_1   0.500000 0.500000 0.926360 -0.021247
O9    O     O_2   0.851084 0.494515 0.220830 -0.486025
O10   O     O_2   0.150144 0.319799 0.771953 -0.490396
O11   O     O_2   0.849782 0.318515 0.769197 -0.488069
O12   O     O_2   0.150503 0.487066 0.220617 -0.490248
F1    F     F_    0.195082 0.652204 0.656963 -0.604260
F2    F     F_    0.779850 0.221713 0.317893 -0.621820
F3    F     F_    0.223411 0.203008 0.349722 -0.618466
F4    F     F_    0.802335 0.633590 0.686407 -0.616940
N5    N     N_3   0.310710 0.718360 0.657468 -0.359125
H5    H     H_    0.354835 0.732768 0.642444 0.173350
H6    H     H_    0.291676 0.808761 0.596230 0.233998
N6    N     N_3   0.659459 0.261446 0.309447 -0.392637
H7    H     H_    0.636428 0.195138 0.392900 0.173002
H8    H     H_    0.683221 0.188357 0.235431 0.261321
N7    N     N_3   0.342114 0.245447 0.344282 -0.410917
H9    H     H_    0.336233 0.141347 0.401091 0.212649
H10   H     H_    0.329885 0.235537 0.220586 0.246389
N8    N     N_3   0.684021 0.685900 0.693143 -0.413668
H11   H     H_    0.702681 0.786553 0.654558 0.234313
H12   H     H_    0.695206 0.668526 0.816688 0.248865

loop_
_geom_bond_atom_site_label_1
_geom_bond_atom_site_label_2
_geom_bond_distance
_ccdc_geom_bond_type
C16   N2    1.367299 A    
C27   C28   1.164224 T    
O3    Zn1   1.952092 S    
C21   C22   1.405391 A    
C15   C17   1.397950 A    
C31   F3    1.358345 S    
C10   N8    1.433651 S    
C16   O12   1.350174 S    
C10   C32   1.395468 A    
C20   C26   1.404121 A    
C6    C12   1.454403 S    
C3    C31   1.394041 A    
C14   C20   1.397987 A    
C5    C11   1.451938 S    
C13   C19   1.396001 A    
C9    N7    1.434707 S    
N6    H7    1.045660 S    
C20   C22   1.409499 A    
O1    C1    1.261293 A    
N5    H5    1.042487 S    
C15   N1    1.367968 A    
O3    C2    1.260990 A    
C17   C23   1.404327 A    
C4    N1    1.426041 S    
C32   F4    1.358352 S    
C14   O10   1.349741 S    
O8    C5    1.275579 A    
O6    Zn2   1.987699 S    
Zn2   N3    1.972712 S    
C15   O11   1.349843 S    
O7    C6    1.276905 A    
C18   C24   1.403689 A    
C14   N2    1.367024 A    
C24   C25   1.391447 A    
C8    C30   1.398988 A    
H4    C26   1.083239 S    
C17   C21   1.409166 A    
C7    N5    1.441009 S    
C23   C26   1.393086 A    
C7    C29   1.395876 A    
C9    C11   1.410437 A    
C13   N1    1.368204 A    
C4    C30   1.397399 A    
C19   C25   1.403874 A    
Zn1   N4    1.972712 S    
C1    C27   1.364087 S    
C8    N6    1.439755 S    
C16   C18   1.395855 A    
C2    C28   1.364236 S    
O4    Zn2   1.952093 S    
O8    Zn2   1.986911 S    
C3    N2    1.423752 S    
H2    C24   1.083323 S    
C9    C31   1.393393 A    
C4    C32   1.399293 A    
C29   F1    1.358460 S    
N8    H12   1.045623 S    
N7    H9    1.045720 S    
C8    C12   1.412525 A    
N5    H6    1.045836 S    
C30   F2    1.358766 S    
N3    N4    1.192794 T    
H1    C23   1.083253 S    
C7    C11   1.416328 A    
O5    Zn1   1.987701 S    
O7    Zn1   1.986909 S    
N6    H8    1.044733 S    
C19   C21   1.408916 A    
O4    C1    1.260905 A    
C18   C22   1.409156 A    
O1    Zn1   1.952761 S    
O2    Zn2   1.952760 S    
O2    C2    1.261276 A    
O5    C5    1.276263 A    
C10   C12   1.405665 A    
H3    C25   1.083308 S    
C13   O9    1.350194 S    
N8    H11   1.045648 S    
N7    H10   1.045606 S    
C3    C29   1.398536 A    
O6    C6    1.275941 A    
