data_mof_unit_pretest_1137.cif
_audit_creation_date              2012-12-11T16:22:18-0500
_audit_creation_method            fapswitch 2.2
_symmetry_space_group_name_H-M    P1
_symmetry_Int_Tables_number       1
_space_group_crystal_system       triclinic
_cell_length_a                    13.454349
_cell_length_b                    14.065729
_cell_length_c                    30.000115
_cell_angle_alpha                 97.893613
_cell_angle_beta                  89.765346
_cell_angle_gamma                 118.799257
_cell_volume                      4915.40610626

loop_
_atom_site_label
_atom_site_type_symbol
_atom_type_description
_atom_site_fract_x
_atom_site_fract_y
_atom_site_fract_z
_atom_type_partial_charge
C1    C     C_R   0.720167 0.098594 0.569184 0.535061
C2    C     C_1   0.413681 0.749480 0.780255 0.046133
C3    C     C_3   0.157127 0.723327 0.710886 0.008747
C4    C     C_3   0.074227 0.739495 0.741793 -0.249279
C5    C     C_3   0.965584 0.631161 0.743086 -0.491879
C6    C     C_3   0.095778 0.062802 0.420215 0.009565
C7    C     C_3   0.150562 0.153473 0.461143 -0.278626
C8    C     C_3   0.071637 0.199271 0.476636 -0.461583
C9    C     C_3   0.818012 0.408355 0.098229 0.002642
C10   C     C_3   0.763607 0.356006 0.050189 -0.261543
C11   C     C_3   0.658838 0.368125 0.041625 -0.472966
C12   C     C_3   0.762397 0.888101 0.367622 0.016636
C13   C     C_1   0.423667 0.780060 0.744145 0.012270
C14   C     C_3   0.761958 0.801888 0.393713 -0.255154
C15   C     C_3   0.680816 0.685539 0.370530 -0.478855
C16   C     C_3   0.642030 0.799726 0.847432 0.023302
C17   C     C_3   0.679892 0.754037 0.883560 -0.282388
C18   C     C_3   0.782632 0.741067 0.869957 -0.488798
C19   C     C_R   0.405266 0.839094 0.559211 0.559611
C20   C     C_R   0.303988 0.602337 0.898112 -0.047966
C21   C     C_3   0.237657 0.071725 0.727312 -0.034158
C22   C     C_3   0.317550 0.057800 0.760024 -0.084639
C23   C     C_1   0.305290 0.193880 0.878902 -0.011772
C24   C     C_1   0.367828 0.133399 0.615257 -0.030185
C25   C     C_3   0.255786 0.174022 0.759661 0.122029
C26   C     C_3   0.333181 0.159931 0.791868 0.047662
C27   C     C_R   0.421316 0.802583 0.698967 0.001659
C28   C     C_3   0.357922 0.250677 0.735527 -0.117133
C29   C     C_3   0.342139 0.148008 0.703599 0.036629
C30   C     C_3   0.437141 0.235730 0.768010 -0.131203
C31   C     C_R   0.397489 0.118217 0.569952 0.527997
C32   C     C_3   0.422042 0.133227 0.735357 -0.095849
C33   C     C_1   0.320316 0.173087 0.840182 -0.043329
C34   C     C_1   0.352225 0.141412 0.654822 -0.051351
C35   C     C_3   0.882459 0.132852 0.727108 0.133805
C36   C     C_3   0.929242 0.240029 0.760867 -0.097058
C37   C     C_1   0.891709 0.201441 0.879163 0.002406
C38   C     C_R   0.330106 0.812757 0.682048 0.307804
C39   C     C_1   0.762872 0.129203 0.615112 -0.019125
C40   C     C_3   0.791001 0.072386 0.758135 0.172667
C41   C     C_3   0.834866 0.177847 0.792076 0.064526
C42   C     C_3   0.707788 0.099028 0.734840 -0.089081
C43   C     C_R   0.720745 0.095509 0.442809 0.555103
C44   C     C_3   0.802287 0.161495 0.703804 0.025016
C45   C     C_3   0.752969 0.207415 0.769224 -0.136999
C46   C     C_3   0.846865 0.269398 0.737303 -0.151567
C47   C     C_1   0.859880 0.188451 0.840341 -0.022073
C48   C     C_1   0.785112 0.147629 0.655040 -0.066354
C49   C     C_R   0.320968 0.821793 0.636266 0.091178
C50   C     C_3   0.255719 0.593991 0.258386 -0.129291
C51   C     C_3   0.254960 0.676071 0.228712 -0.137406
C52   C     C_1   0.310448 0.610020 0.110539 -0.006412
C53   C     C_1   0.368210 0.737641 0.378031 -0.025383
C54   C     C_3   0.343214 0.578531 0.228448 -0.086564
C55   C     C_R   0.382492 0.784420 0.424390 0.552576
C56   C     C_3   0.342616 0.661238 0.199466 0.028275
C57   C     C_3   0.440474 0.675914 0.259136 0.159756
C58   C     C_3   0.354809 0.690627 0.288762 0.055356
C59   C     C_3   0.439617 0.756214 0.230051 0.130320
C60   C     C_R   0.274897 0.604154 0.818330 0.209046
C61   C     C_3   0.354255 0.773399 0.259756 -0.098559
C62   C     C_1   0.329917 0.639326 0.150455 -0.057682
C63   C     C_1   0.361021 0.711087 0.337902 -0.052446
C64   C     C_R   0.360555 0.133378 0.400348 -0.006320
C65   C     C_R   0.445657 0.204228 0.375386 -0.195097
C66   C     C_R   0.421709 0.206899 0.331061 -0.190708
C67   C     C_R   0.396174 0.114827 0.443124 0.565327
C68   C     C_R   0.313001 0.137977 0.310524 0.015756
C69   C     C_R   0.223517 0.069778 0.335010 0.282986
C70   C     C_R   0.247067 0.072417 0.381656 0.249633
C71   C     C_R   0.230926 0.563346 0.858541 0.257648
C72   C     C_R   0.230218 0.079798 0.144200 -0.110641
C73   C     C_R   0.231464 0.103518 0.100539 -0.123516
C74   C     C_R   0.396703 0.282445 0.123399 -0.138184
C75   C     C_R   0.395397 0.258377 0.166993 -0.121984
C76   C     C_R   0.309735 0.158826 0.177684 0.034967
C77   C     C_1   0.300302 0.142293 0.223717 -0.024047
C78   C     C_1   0.299502 0.136021 0.263152 0.024311
C79   C     C_R   0.403663 0.819829 0.606946 -0.024037
C80   C     C_R   0.311768 0.206959 0.090269 0.020516
C81   C     C_R   0.780446 0.133865 0.402232 0.029268
C82   C     C_R   0.414692 0.689633 0.898611 -0.183100
C83   C     C_R   0.821338 0.072327 0.374599 0.244033
C84   C     C_R   0.850779 0.096210 0.330952 -0.096296
C85   C     C_R   0.836826 0.178150 0.314993 -0.000407
C86   C     C_R   0.805411 0.244445 0.343430 -0.138957
C87   C     C_R   0.778601 0.223353 0.386944 -0.178635
C88   C     C_R   0.866333 0.291087 0.165381 -0.102692
C89   C     C_R   0.887464 0.300513 0.119968 0.264793
C90   C     C_R   0.859339 0.114132 0.107610 -0.176389
C91   C     C_R   0.494356 0.810148 0.625131 -0.166280
C92   C     C_R   0.835320 0.104723 0.152326 -0.131615
C93   C     C_R   0.454539 0.738637 0.859981 0.233245
C94   C     C_R   0.844698 0.194968 0.181578 -0.005008
C95   C     C_1   0.842796 0.191632 0.228768 -0.017234
C96   C     C_1   0.842400 0.186887 0.268264 -0.015072
C97   C     C_R   0.893627 0.214396 0.091788 0.023196
C98   C     C_R   0.285759 0.231879 0.922784 0.548032
C99   C     C_R   0.266363 0.547061 0.937944 0.577831
C100  C     C_R   0.944806 0.221792 0.923115 0.549868
C101  C     C_R   0.292447 0.243058 0.048989 0.539546
C102  C     C_R   0.275679 0.559453 0.064824 0.545208
C103  C     C_R   0.502113 0.800249 0.670344 -0.190608
C104  C     C_R   0.382880 0.697537 0.820030 -0.011893
C105  C     C_R   0.952734 0.232480 0.049732 0.550779
C106  C     C_3   0.041409 0.511331 0.843333 0.046666
C107  C     C_3   0.948144 0.489240 0.876054 -0.258155
C108  C     C_3   0.856845 0.511241 0.857634 -0.510934
C109  C     C_3   0.244971 0.490692 0.751637 -0.000333
C110  C     C_3   0.186482 0.456605 0.704036 -0.266658
C111  C     C_3   0.223474 0.385184 0.673361 -0.482690
C112  C     C_3   0.059619 0.896167 0.317780 0.025257
C113  C     C_3   0.129178 0.837429 0.304376 -0.271035
C114  C     C_3   0.059420 0.715179 0.307257 -0.479931
Cr1   Cr    Cr6+3 0.583430 0.162610 0.509470 1.004767
Cr2   Cr    Cr6+3 0.584210 0.916680 0.495400 1.006625
Cr3   Cr    Cr6+3 0.332380 0.920740 0.495100 1.032219
Cr4   Cr    Cr6+3 0.086810 0.177030 0.983130 1.018631
Cr5   Cr    Cr6+3 0.337180 0.419300 0.994610 1.009237
Cr6   Cr    Cr6+3 0.084840 0.422330 0.995830 1.042743
H1    H     H_    0.154975 0.006215 0.710413 0.136540
H2    H     H_    0.179398 0.527026 0.270486 0.116300
H3    H     H_    0.359852 0.853783 0.272707 0.109636
H4    H     H_    0.340225 0.499306 0.215445 0.116661
H5    H     H_    0.165190 0.043615 0.075600 0.121917
H6    H     H_    0.164315 0.002215 0.152270 0.111790
H7    H     H_    0.533027 0.253335 0.389200 0.147836
H8    H     H_    0.457719 0.319641 0.192897 0.104773
H9    H     H_    0.458938 0.362947 0.116622 0.121989
H10   H     H_    0.490078 0.259408 0.311979 0.126766
H11   H     H_    0.872200 0.360592 0.188269 0.109521
H12   H     H_    0.491374 0.116247 0.724238 0.116643
H13   H     H_    0.795663 0.308737 0.331206 0.115752
H14   H     H_    0.748487 0.272647 0.407390 0.135470
H15   H     H_    0.816713 0.029413 0.164730 0.126004
H16   H     H_    0.859402 0.045290 0.086431 0.137971
H17   H     H_    0.880263 0.048505 0.309014 0.128935
H18   H     H_    0.560447 0.810245 0.604398 0.155188
H19   H     H_    0.469803 0.721001 0.929363 0.132017
H20   H     H_    0.571131 0.789929 0.682912 0.115871
H21   H     H_    0.303321 0.981801 0.772373 0.164387
H22   H     H_    0.002133 0.460956 0.809971 0.164461
H23   H     H_    0.519218 0.301758 0.785186 0.103373
H24   H     H_    0.080614 0.599803 0.839274 0.135593
H25   H     H_    0.907770 0.402704 0.881740 0.183150
H26   H     H_    0.986201 0.543023 0.908966 0.175369
H27   H     H_    0.895149 0.597785 0.851725 0.145881
H28   H     H_    0.791224 0.496458 0.882354 0.149896
H29   H     H_    0.815251 0.455679 0.825398 0.143975
H30   H     H_    0.139491 0.220886 0.748034 0.233894
H31   H     H_    0.198306 0.261639 0.800791 0.226230
H32   H     H_    0.893670 0.014971 0.683440 0.226782
H33   H     H_    0.997930 0.143094 0.681562 0.220542
H34   H     H_    0.373113 0.329558 0.725716 0.094605
H35   H     H_    0.222398 0.416304 0.767143 0.135347
H36   H     H_    0.338663 0.534372 0.748696 0.122520
H37   H     H_    0.092723 0.411259 0.705820 0.163524
H38   H     H_    0.208980 0.531049 0.688570 0.155048
H39   H     H_    0.317105 0.429249 0.671139 0.148425
H40   H     H_    0.181891 0.365752 0.638957 0.149356
H41   H     H_    0.198061 0.306936 0.686059 0.141175
H42   H     H_    0.734379 0.909568 0.739137 0.214334
H43   H     H_    0.837380 0.969470 0.781058 0.238891
H44   H     H_    0.579619 0.807890 0.194030 0.220146
H45   H     H_    0.019507 0.297679 0.772174 0.135493
H46   H     H_    0.513725 0.883418 0.194616 0.231887
H47   H     H_    0.579957 0.658594 0.247670 0.218236
H48   H     H_    0.598445 0.756657 0.290524 0.226627
H49   H     H_    0.980875 0.855341 0.294911 0.136066
H50   H     H_    0.029139 0.883557 0.351876 0.178189
H51   H     H_    0.154806 0.848111 0.269364 0.157866
H52   H     H_    0.207138 0.872511 0.327384 0.169549
H53   H     H_    0.029783 0.703120 0.341688 0.158585
H54   H     H_    0.112494 0.675131 0.300074 0.156880
H55   H     H_    0.984695 0.675290 0.282292 0.136591
H56   H     H_    0.869771 0.350946 0.728119 0.104959
H57   H     H_    0.178906 0.665541 0.724115 0.179531
H58   H     H_    0.114851 0.687582 0.676265 0.144971
H59   H     H_    0.115451 0.774169 0.776537 0.167756
H60   H     H_    0.052112 0.798556 0.729580 0.171592
H61   H     H_    0.920786 0.596866 0.708956 0.146884
H62   H     H_    0.908209 0.645204 0.766505 0.139134
H63   H     H_    0.985830 0.570810 0.755081 0.153563
H64   H     H_    0.013144 0.998508 0.429557 0.189834
H65   H     H_    0.076460 0.095340 0.391496 0.180738
H66   H     H_    0.169799 0.119767 0.489311 0.177776
H67   H     H_    0.699493 0.238487 0.787125 0.107312
H68   H     H_    0.231464 0.221390 0.452256 0.153466
H69   H     H_    0.052386 0.234540 0.449083 0.161792
H70   H     H_    0.113434 0.265003 0.506139 0.142519
H71   H     H_    0.990806 0.133456 0.486692 0.172481
H72   H     H_    0.844445 0.497242 0.102452 0.146265
H73   H     H_    0.754174 0.373234 0.123532 0.109077
H74   H     H_    0.826645 0.396003 0.025463 0.174685
H75   H     H_    0.737896 0.267215 0.044939 0.153631
H76   H     H_    0.593161 0.325135 0.064949 0.156260
H77   H     H_    0.622606 0.331049 0.006419 0.156459
H78   H     H_    0.617654 0.039396 0.723818 0.118498
H79   H     H_    0.681845 0.456227 0.046519 0.142055
H80   H     H_    0.791796 0.877335 0.333526 0.115790
H81   H     H_    0.673853 0.874971 0.364444 0.152345
H82   H     H_    0.849159 0.812473 0.396522 0.149399
H83   H     H_    0.735670 0.813523 0.428320 0.188535
H84   H     H_    0.592437 0.672070 0.368339 0.181624
H85   H     H_    0.683127 0.625441 0.390354 0.142708
H86   H     H_    0.706640 0.671325 0.336116 0.155922
H87   H     H_    0.175417 0.765837 0.597037 0.240205
H88   H     H_    0.258230 0.905329 0.606870 0.256456
H89   H     H_    0.177926 0.675991 0.215536 0.121464
H90   H     H_    0.717680 0.875265 0.840482 0.193131
H91   H     H_    0.612195 0.740957 0.815173 0.117775
H92   H     H_    0.702440 0.810648 0.916108 0.178961
H93   H     H_    0.609586 0.672330 0.888355 0.153571
H94   H     H_    0.761506 0.683632 0.837734 0.141675
H95   H     H_    0.807514 0.707485 0.896608 0.147387
H96   H     H_    0.855843 0.821823 0.865906 0.156936
N1    N     N_3   0.164197 0.194933 0.774658 -0.606390
N2    N     N_3   0.949971 0.088954 0.703534 -0.635636
N3    N     N_3   0.762083 0.965034 0.769209 -0.638521
N4    N     N_3   0.540809 0.844269 0.214863 -0.639852
N5    N     N_3   0.542063 0.676277 0.275734 -0.647603
N6    N     N_3   0.227278 0.833671 0.621084 -0.610649
O1    O     O_R   0.493980 0.188910 0.559650 -0.501576
O2    O     O_R   0.170560 0.527890 0.952050 -0.487219
O3    O     O_R   0.987620 0.318470 0.945550 -0.500608
O4    O     O_R   0.678640 0.153520 0.554450 -0.493905
O5    O     O_R   0.976400 0.159270 0.031530 -0.532354
O6    O     O_R   0.194000 0.188570 0.028560 -0.501814
O7    O     O_R   0.365260 0.335720 0.039020 -0.522031
O8    O     O_R   0.330440 0.515580 0.044910 -0.504429
O9    O     O_R   0.177310 0.536200 0.050190 -0.488194
O10   O     O_R   0.993870 0.326170 0.036530 -0.452482
O11   O     O_3   0.169610 0.339550 0.991190 -0.243589
O12   O     O_R   0.480180 0.824400 0.444640 -0.498225
O13   O     O_R   0.698130 0.004030 0.549500 -0.525772
O14   O     O_R   0.481060 0.827210 0.535360 -0.501083
O15   O     O_R   0.309260 0.811560 0.537660 -0.520049
O16   O     O_R   0.341620 0.023400 0.546290 -0.525675
O17   O     O_R   0.493030 0.185890 0.461780 -0.532653
O18   O     O_R   0.677760 0.150720 0.463730 -0.515206
O19   O     O_R   0.697180 0.001010 0.451640 -0.477500
O20   O     O_3   0.119386 0.480468 0.859256 -0.549987
O21   O     O_3   0.207993 0.557570 0.778060 -0.601888
O22   O     O_3   0.115488 0.008799 0.312767 -0.584028
O23   O     O_R   0.308310 0.808540 0.439800 -0.495223
O24   O     O_3   0.255949 0.825411 0.711212 -0.575089
O25   O     O_3   0.163066 0.012019 0.408696 -0.587296
O26   O     O_3   0.916862 0.399062 0.105137 -0.547489
O27   O     O_3   0.837258 0.993355 0.391375 -0.589019
O28   O     O_3   0.560612 0.830697 0.862815 -0.550142
O29   O     O_R   0.340740 0.020600 0.455570 -0.447557
O30   O     O_3   0.500010 0.000010 0.499990 -0.266905
O31   O     O_R   0.969650 0.150960 0.933380 -0.505618
O32   O     O_R   0.187740 0.180870 0.937580 -0.489549
O33   O     O_R   0.358510 0.327410 0.940870 -0.513978
O34   O     O_R   0.324180 0.507870 0.953930 -0.506541

loop_
_geom_bond_atom_site_label_1
_geom_bond_atom_site_label_2
_ccdc_geom_bond_type
C1    O4    A    
C66   C68   A    
C111  H40   S    
C73   C80   A    
C20   C82   A    
C49   N6    S    
C22   H21   S    
C7    H66   S    
C25   N1    S    
C95   C96   T    
C50   H2    S    
C32   H12   S    
H48   N5    S    
C72   C76   A    
C17   H92   S    
C19   O14   A    
Cr6   O10   S    
C11   H79   S    
C15   H84   S    
Cr3   O29   S    
C7    C8    S    
C113  H51   S    
C38   C49   A    
C57   N5    S    
C77   C78   T    
C43   O19   A    
C25   C28   S    
C6    H65   S    
C52   C102  S    
C82   H19   S    
C22   C32   S    
C101  O6    A    
C72   H6    S    
C65   H7    S    
Cr1   O1    S    
C28   C29   S    
C3    H58   S    
C106  O20   S    
C75   H8    S    
C29   C32   S    
C59   N4    S    
C10   H74   S    
Cr1   O18   S    
C107  H25   S    
C85   C96   S    
C9    H73   S    
C57   C59   S    
C106  C107  S    
C109  O21   S    
C27   C38   A    
H88   N6    S    
C106  H24   S    
C38   O24   S    
C93   C104  A    
C51   C56   S    
C67   O17   A    
C9    O26   S    
C2    C13   T    
C111  H39   S    
C110  C111  S    
H47   N5    S    
C21   C25   S    
Cr4   O32   S    
Cr5   O8    S    
H42   N3    S    
C84   C85   A    
Cr5   O11   S    
C114  H53   S    
C112  H50   S    
C18   H95   S    
C8    H70   S    
C68   C69   A    
C23   C33   T    
C51   C61   S    
C107  C108  S    
H31   N1    S    
C20   C71   A    
C36   C46   S    
C3    O24   S    
C64   C70   A    
C37   C47   T    
C9    H72   S    
C41   C47   S    
C9    C10   S    
C90   C97   A    
C79   C91   A    
C110  H38   S    
C70   O25   S    
C108  H27   S    
C97   C105  S    
H44   N4    S    
C58   C61   S    
C40   C42   S    
Cr1   O17   S    
C111  H41   S    
Cr3   O15   S    
Cr6   O2    S    
C82   C93   A    
C74   C80   A    
C21   C22   S    
C83   O27   S    
C28   H34   S    
C87   H14   S    
C36   C41   S    
C18   H94   S    
C42   C44   S    
C4    H60   S    
C17   H93   S    
Cr6   O9    S    
C5    H61   S    
C112  C113  S    
C81   C83   A    
Cr3   O30   S    
C44   C46   S    
C6    H64   S    
C106  H22   S    
C113  H52   S    
C54   C56   S    
C53   C55   S    
C68   C78   S    
C88   C94   A    
C59   C61   S    
C74   C75   A    
C50   C58   S    
C105  O10   A    
C6    O25   S    
C42   H78   S    
C8    H71   S    
C76   C77   S    
C71   O20   S    
Cr1   O4    S    
C43   O18   A    
C107  H26   S    
C16   O28   S    
C86   C87   A    
C45   H67   S    
Cr1   O30   S    
Cr2   O30   S    
C60   C71   A    
Cr4   O6    S    
C25   C26   S    
C85   C86   A    
C21   C29   S    
C29   C34   S    
C24   C34   T    
C30   H23   S    
C49   C79   A    
H32   N2    S    
C42   C45   S    
C75   C76   A    
C11   H77   S    
C10   H75   S    
C99   O34   A    
Cr4   O31   S    
Cr6   O11   S    
C91   H18   S    
C90   H16   S    
C51   H89   S    
C1    C39   S    
C90   C92   A    
C83   C84   A    
C2    C104  S    
C8    H69   S    
C14   H83   S    
Cr2   O14   S    
C92   C94   A    
C17   C18   S    
C12   H80   S    
C50   C51   S    
C50   C54   S    
C12   H81   S    
C11   H76   S    
C19   C79   S    
C35   C44   S    
C15   H85   S    
H33   N2    S    
C81   C87   A    
C110  H37   S    
C100  O3    A    
C31   O1    A    
C114  H55   S    
C31   O16   A    
C12   C14   S    
C84   H17   S    
C26   C30   S    
C40   N3    S    
C22   C26   S    
C102  O9    A    
C43   C81   S    
C46   H56   S    
C92   H15   S    
C4    H59   S    
Cr2   O12   S    
C16   H90   S    
C35   N2    S    
H46   N4    S    
C5    H62   S    
C98   O32   A    
C93   O28   S    
Cr5   O34   S    
C113  C114  S    
C98   O33   A    
C58   C63   S    
C54   H4    S    
C99   O2    A    
C40   C41   S    
C60   O21   S    
C3    C4    S    
C16   H91   S    
C18   H96   S    
C86   H13   S    
C91   C103  A    
C72   C73   A    
Cr5   O33   S    
Cr3   O16   S    
C89   O26   S    
C69   O22   S    
Cr2   O19   S    
C6    C7    S    
Cr3   O23   S    
Cr4   O5    S    
Cr5   O7    S    
C114  H54   S    
C56   C59   S    
C80   C101  S    
C61   H3    S    
C64   C65   A    
C19   O15   A    
C35   C40   S    
C3    H57   S    
C24   C31   S    
C28   C30   S    
C44   C48   S    
C52   C62   T    
C109  C110  S    
C30   C32   S    
C53   C63   T    
Cr4   O11   S    
C57   C58   S    
C16   C17   S    
C20   C99   S    
C1    O13   A    
C73   H5    S    
C14   H82   S    
Cr2   O13   S    
C27   C103  A    
C36   H45   S    
H30   N1    S    
C112  O22   S    
C56   C62   S    
C105  O5    A    
C21   H1    S    
C94   C95   S    
C109  H35   S    
C69   C70   A    
C7    H68   S    
C15   H86   S    
C10   C11   S    
C12   O27   S    
C103  H20   S    
C108  H29   S    
C45   C46   S    
C64   C67   S    
C4    C5    S    
C23   C98   S    
C88   C89   A    
C112  H49   S    
H87   N6    S    
C65   C66   A    
C55   O23   A    
C74   H9    S    
C89   C97   A    
C102  O8    A    
C41   C45   S    
C14   C15   S    
C13   C27   S    
C101  O7    A    
C35   C36   S    
C55   O12   A    
C88   H11   S    
C66   H10   S    
C60   C104  A    
C109  H36   S    
Cr6   O3    S    
C5    H63   S    
C37   C100  S    
C100  O31   A    
C26   C33   S    
H43   N3    S    
C39   C48   T    
C108  H28   S    
C54   C57   S    
C67   O29   A    
