data_mof_unit_pretest_776.cif
_audit_creation_date              2012-12-11T16:28:33-0500
_audit_creation_method            fapswitch 2.2
_symmetry_space_group_name_H-M    P1
_symmetry_Int_Tables_number       1
_space_group_crystal_system       triclinic
_cell_length_a                    16.927254
_cell_length_b                    7.24749
_cell_length_c                    14.880446
_cell_angle_alpha                 88.641006
_cell_angle_beta                  94.571418
_cell_angle_gamma                 88.714419
_cell_volume                      1818.67325886

loop_
_atom_site_label
_atom_site_type_symbol
_atom_type_description
_atom_site_fract_x
_atom_site_fract_y
_atom_site_fract_z
_atom_type_partial_charge
O1    O     O_R   0.663460 0.361760 0.165970 -0.532363
O2    O     O_R   0.336540 0.638240 0.834030 -0.532358
O3    O     O_R   0.836540 0.861760 0.334030 -0.527408
O4    O     O_R   0.163460 0.138240 0.665970 -0.527408
O5    O     O_R   0.827100 0.689870 0.163730 -0.525576
O6    O     O_R   0.172900 0.310130 0.836270 -0.525578
O7    O     O_R   0.672900 0.189870 0.336270 -0.535044
O8    O     O_R   0.327100 0.810130 0.663730 -0.535042
C1    C     C_R   0.854289 0.522884 0.144742 0.740914
C2    C     C_R   0.145707 0.477115 0.855250 0.740943
C3    C     C_R   0.645641 0.023656 0.355061 0.737862
C4    C     C_R   0.354357 0.976344 0.644936 0.737846
O9    O     O_R   0.663490 0.691370 0.155500 -0.527837
O10   O     O_R   0.336510 0.308630 0.844500 -0.527842
O11   O     O_R   0.836510 0.191370 0.344500 -0.532128
O12   O     O_R   0.163490 0.808630 0.655500 -0.532130
O13   O     O_R   0.671770 0.863320 0.325740 -0.523958
O14   O     O_R   0.328230 0.136680 0.674260 -0.523959
O15   O     O_R   0.828230 0.363320 0.174260 -0.534929
O16   O     O_R   0.171770 0.636680 0.825740 -0.534928
C5    C     C_R   0.638804 0.526284 0.129418 0.716419
C6    C     C_R   0.361197 0.473716 0.870582 0.716444
C7    C     C_R   0.860698 0.018423 0.370437 0.715434
C8    C     C_R   0.139303 0.981577 0.629563 0.715424
H1    H     H_    0.096958 0.917575 0.211132 0.140169
H2    H     H_    0.903051 0.082477 0.788865 0.140170
H3    H     H_    0.399745 0.663853 0.278398 0.137136
H4    H     H_    0.600268 0.336057 0.721630 0.137127
O17   O     O_3   0.752910 0.528800 0.305860 -0.362636
O18   O     O_3   0.247090 0.471200 0.694140 -0.362632
O19   O     O_3   0.747090 0.028800 0.194140 -0.368036
O20   O     O_3   0.252910 0.971200 0.805860 -0.368042
V1    V     V_3+5 0.749460 0.803010 0.239640 1.504037
V2    V     V_3+5 0.250540 0.196990 0.760360 1.504026
V3    V     V_3+5 0.750540 0.303010 0.260360 1.491043
V4    V     V_3+5 0.249460 0.696990 0.739640 1.491046
C9    C     C_1   0.469286 0.994169 0.530657 0.026565
C10   C     C_1   0.530710 0.005832 0.469337 0.026568
C11   C     C_1   0.030749 0.494853 0.969391 0.026206
C12   C     C_1   0.969242 0.505145 0.030594 0.026204
H5    H     H_    0.787056 0.993140 0.692117 0.149653
H6    H     H_    0.212950 0.006982 0.307875 0.149650
H7    H     H_    0.713914 0.462251 0.810100 0.147946
H8    H     H_    0.286092 0.537811 0.189910 0.147957
C13   C     C_R   0.016613 0.948886 0.314533 -0.146105
C14   C     C_R   0.983390 0.051114 0.685469 -0.146104
C15   C     C_R   0.481232 0.607214 0.178649 -0.145382
C16   C     C_R   0.518774 0.392717 0.821369 -0.145393
C17   C     C_R   0.091092 0.943971 0.281641 -0.140702
C18   C     C_R   0.908915 0.056072 0.718357 -0.140725
C19   C     C_R   0.406568 0.616355 0.210922 -0.137476
C20   C     C_R   0.593440 0.383593 0.789100 -0.137436
C21   C     C_R   0.156991 0.989132 0.337224 -0.098284
C22   C     C_R   0.843015 0.010949 0.662771 -0.098278
C23   C     C_R   0.341916 0.549915 0.159662 -0.095907
C24   C     C_R   0.658089 0.450113 0.840350 -0.095911
C25   C     C_R   0.149689 0.029129 0.427618 0.108126
C26   C     C_R   0.850314 0.970931 0.572380 0.108123
C27   C     C_R   0.350376 0.483608 0.073467 0.110693
C28   C     C_R   0.649623 0.516451 0.926540 0.110669
C29   C     C_R   0.076596 0.002477 0.466807 0.039939
C30   C     C_R   0.923405 0.997542 0.533193 0.039946
C31   C     C_R   0.423261 0.502427 0.032850 0.041522
C32   C     C_R   0.576738 0.497587 0.967156 0.041516
C33   C     C_R   0.007480 0.981674 0.406663 0.051674
C34   C     C_R   0.992521 0.018328 0.593338 0.051681
C35   C     C_R   0.491579 0.546939 0.090432 0.049879
C36   C     C_R   0.508421 0.453043 0.909578 0.049879
C37   C     C_R   0.069213 0.005036 0.561651 -0.148714
C38   C     C_R   0.930787 0.994965 0.438350 -0.148716
C39   C     C_R   0.431249 0.470089 0.939701 -0.149861
C40   C     C_R   0.568750 0.529911 0.060304 -0.149849
C41   C     C_1   0.417062 0.984947 0.582698 -0.149385
C42   C     C_1   0.582935 0.015053 0.417297 -0.149379
C43   C     C_1   0.083028 0.486366 0.917427 -0.150532
C44   C     C_1   0.916965 0.513633 0.082560 -0.150543
H9    H     H_    0.966569 0.924576 0.266835 0.119050
H10   H     H_    0.033433 0.075398 0.733169 0.119049
H11   H     H_    0.530496 0.650251 0.223457 0.119171
H12   H     H_    0.469511 0.349627 0.776568 0.119178
I1    I     I_    0.237801 0.209348 0.478629 -0.413936
I2    I     I_    0.762191 0.790751 0.521378 -0.413953
I3    I     I_    0.264035 0.288290 0.034800 -0.427259
I4    I     I_    0.735940 0.711907 0.965198 -0.427216

loop_
_geom_bond_atom_site_label_1
_geom_bond_atom_site_label_2
_ccdc_geom_bond_type
C26   C30   A    
O1    C5    A    
C23   C27   A    
C28   I4    S    
O3    C7    A    
C15   H11   S    
O7    C3    A    
C18   C22   A    
C32   C36   A    
C27   I3    S    
C14   C34   A    
H2    C18   S    
H6    C21   S    
C22   C26   A    
O4    C8    A    
C34   C37   A    
O3    V1    S    
O2    V4    S    
C33   C38   A    
C30   C38   A    
C35   C40   A    
O8    V4    S    
O11   V3    S    
C9    C41   T    
C1    O15   A    
C2    O16   A    
O5    V1    S    
O2    C6    A    
O19   V1    S    
C1    C44   S    
C11   C43   T    
O11   C7    A    
O12   C8    A    
C4    C41   S    
C7    C38   S    
O13   V1    S    
C15   C35   A    
H3    C19   S    
C8    C37   S    
O4    V2    S    
C31   C35   A    
C30   C34   A    
C5    C40   S    
C11   C12   S    
C14   H10   S    
C21   C25   A    
C15   C19   A    
O6    V2    S    
O20   V2    S    
O5    C1    A    
C9    C10   S    
C2    C43   S    
C13   C17   A    
O8    C4    A    
O9    C5    A    
C16   C36   A    
O14   V2    S    
C31   C39   A    
C13   C33   A    
C25   I1    S    
C6    C39   S    
O1    V3    S    
C10   C42   T    
C29   C37   A    
C14   C18   A    
C3    O13   A    
O7    V3    S    
C3    C42   S    
O10   V2    S    
C25   C29   A    
O17   V3    S    
C27   C31   A    
O18   V4    S    
C28   C32   A    
O10   C6    A    
C26   I2    S    
O15   V3    S    
O12   V4    S    
H4    C20   S    
H8    C23   S    
C16   H12   S    
C36   C39   A    
C17   C21   A    
C19   C23   A    
C32   C40   A    
H1    C17   S    
H5    C22   S    
O6    C2    A    
O16   V4    S    
C29   C33   A    
H7    C24   S    
C16   C20   A    
C24   C28   A    
O9    V1    S    
C12   C44   T    
C4    O14   A    
C13   H9    S    
C20   C24   A    
