data_mof_unit_pretest_379.cif
_audit_creation_date              2013-03-05T16:11:55-0500
_audit_creation_method            fapswitch 2.2
_symmetry_space_group_name_H-M    P1
_symmetry_Int_Tables_number       1
_space_group_crystal_system       triclinic
_cell_length_a                    15.744327
_cell_length_b                    10.65889
_cell_length_c                    9.849809
_cell_angle_alpha                 89.632222
_cell_angle_beta                  89.952499
_cell_angle_gamma                 90.158174
_cell_volume                      1652.92494112

loop_
_atom_site_label
_atom_site_type_symbol
_atom_site_description
_atom_site_fract_x
_atom_site_fract_y
_atom_site_fract_z
_atom_type_partial_charge
O1    O     O_R   0.499990 0.316750 0.614620 -0.620965
O2    O     O_R   0.500010 0.683250 0.385380 -0.620965
O3    O     O_R   0.500000 0.316780 0.385290 -0.623461
O4    O     O_R   0.500000 0.683220 0.614710 -0.623460
C1    C     C_R   0.501887 0.260244 0.500522 0.889505
C2    C     C_R   0.498114 0.739756 0.499478 0.889507
O5    O     O_R   0.376780 0.499970 0.614640 -0.610692
O6    O     O_R   0.623220 0.500030 0.385360 -0.610693
O7    O     O_R   0.376780 0.500000 0.385310 -0.608630
O8    O     O_R   0.623220 0.500000 0.614690 -0.608630
C3    C     C_R   0.337931 0.500067 0.500017 0.895630
C4    C     C_R   0.662069 0.499933 0.499983 0.895626
Zn1   Zn    Zn3+2 0.500000 0.499980 0.653120 0.964842
Zn2   Zn    Zn3+2 0.500000 0.500020 0.346880 0.964842
C5    C     C_3   0.971027 0.392180 0.557369 -0.259355
C6    C     C_3   0.028973 0.607819 0.442631 -0.259358
C7    C     C_3   0.026615 0.403704 0.429543 0.389262
C8    C     C_3   0.973386 0.596295 0.570458 0.389259
H1    H     H_    0.946330 0.303379 0.601974 0.193933
H2    H     H_    0.053670 0.696621 0.398027 0.193935
H3    H     H_    0.946931 0.514988 0.265077 0.189836
H4    H     H_    0.053068 0.485012 0.734924 0.189835
C9    C     C_1   0.249168 0.500126 0.500079 -0.140875
C10   C     C_1   0.750831 0.499874 0.499921 -0.140875
C11   C     C_3   0.028648 0.490544 0.629355 -0.263362
C12   C     C_3   0.971353 0.509455 0.370645 -0.263363
C13   C     C_3   0.083247 0.499636 0.499746 0.029809
C14   C     C_3   0.916753 0.500364 0.500255 0.029808
C15   C     C_1   0.173993 0.499970 0.499977 0.063095
C16   C     C_1   0.826008 0.500029 0.500023 0.063095
C17   C     C_R   0.444123 0.067843 0.417501 -0.208431
C18   C     C_R   0.555876 0.932157 0.582502 -0.208439
H5    H     H_    0.400670 0.122334 0.355354 0.163976
H6    H     H_    0.599329 0.877667 0.644650 0.163976
C19   C     C_R   0.440646 0.938697 0.414912 0.171242
C20   C     C_R   0.559350 0.061303 0.585096 0.171237
C21   C     C_R   0.497576 0.872199 0.498255 -0.071709
C22   C     C_R   0.502424 0.127800 0.501747 -0.071715
C23   C     C_R   0.548348 0.584158 0.071242 -0.064344
C24   C     C_R   0.451652 0.415841 0.928758 -0.064348
H7    H     H_    0.587023 0.651461 0.125137 0.141144
H8    H     H_    0.412977 0.348538 0.874863 0.141145
C25   C     C_R   0.548347 0.584106 0.927412 -0.049258
C26   C     C_R   0.451653 0.415894 0.072588 -0.049259
H9    H     H_    0.587045 0.651356 0.872437 0.140980
H10   H     H_    0.412955 0.348644 0.127563 0.140980
N1    N     N_R   0.499980 0.499970 0.857200 -0.087365
N2    N     N_R   0.500020 0.500030 0.142800 -0.087365
N3    N     N_R   0.055203 0.296346 0.351014 0.218086
O9    O     O_R   0.999610 0.221726 0.296424 -0.359197
O10   O     O_R   0.135759 0.274275 0.334950 -0.389515
N4    N     N_R   0.944797 0.703653 0.648987 0.218085
O11   O     O_R   0.000390 0.778279 0.703569 -0.359195
O12   O     O_R   0.864241 0.725717 0.665063 -0.389516
C27   C     C_3   0.374931 0.874781 0.327382 -0.823391
H11   H     H_    0.336876 0.808012 0.389711 0.230983
H12   H     H_    0.330410 0.943346 0.280863 0.244605
H13   H     H_    0.406450 0.823653 0.243550 0.253631
C28   C     C_3   0.625058 0.125218 0.672643 -0.823360
H14   H     H_    0.663118 0.191993 0.610323 0.230983
H15   H     H_    0.593529 0.176341 0.756473 0.253627
H16   H     H_    0.669577 0.056651 0.719172 0.244595

loop_
_geom_bond_atom_site_label_1
_geom_bond_atom_site_label_2
_geom_bond_distance
_ccdc_geom_bond_type
C24   N1    1.366405 A    
Zn2   N2    2.010148 S    
C27   H11   1.110772 S    
C17   H5    1.085548 S    
C8    C14   1.524397 S    
C5    C7    1.536845 S    
O6    C4    1.284495 A    
C11   C13   1.540865 S    
O7    C3    1.284335 A    
C4    C10   1.397509 S    
C12   C14   1.540869 S    
C17   C22   1.394412 A    
C6    H2    1.110166 S    
O7    Zn2   1.976292 S    
C20   C28   1.510996 S    
C6    C13   1.540854 S    
C14   C16   1.428727 S    
C2    C21   1.411718 S    
C8    N4    1.457386 S    
C28   H14   1.110803 S    
C23   H7    1.081766 S    
C8    C11   1.536874 S    
C1    C22   1.411720 S    
O5    C3    1.284496 A    
C25   H9    1.081803 S    
C5    C14   1.540858 S    
O2    C2    1.278835 A    
O3    Zn2   1.987055 S    
O8    C4    1.284336 A    
O1    C1    1.278833 A    
C7    C12   1.536873 S    
C18   C20   1.377893 A    
O4    C2    1.282047 A    
C19   C21   1.406035 A    
H3    C12   1.110213 S    
N4    O12   1.300292 A    
C5    H1    1.110167 S    
C17   C19   1.377891 A    
C27   H12   1.111055 S    
C6    C12   1.558959 S    
O2    Zn2   1.991890 S    
C10   C16   1.183601 T    
C28   H15   1.109831 S    
C13   C15   1.428725 S    
C19   C27   1.510982 S    
C20   C22   1.406033 A    
C7    C13   1.524406 S    
C9    C15   1.183590 T    
C24   C26   1.416709 A    
O1    Zn1   1.991891 S    
N4    O11   1.300099 A    
C23   C25   1.416709 A    
C5    C11   1.558959 S    
C6    C8    1.536850 S    
N3    O9    1.300093 A    
C27   H13   1.109817 S    
C7    N3    1.457384 S    
C3    C9    1.397512 S    
Zn1   N1    2.010148 S    
C23   N2    1.366405 A    
C28   H16   1.111089 S    
O6    Zn2   1.977001 S    
O5    Zn1   1.977004 S    
O3    C1    1.282050 A    
C18   C21   1.394412 A    
C25   N1    1.366555 A    
H4    C11   1.110210 S    
C26   N2    1.366555 A    
O4    Zn1   1.987054 S    
C26   H10   1.081803 S    
C24   H8    1.081765 S    
N3    O10   1.300290 A    
O8    Zn1   1.976291 S    
C18   H6    1.085542 S    
