data_mof_unit_pretest_1957.cif
_audit_creation_date              2012-12-11T16:14:45-0500
_audit_creation_method            fapswitch 2.2
_symmetry_space_group_name_H-M    P1
_symmetry_Int_Tables_number       1
_space_group_crystal_system       triclinic
_cell_length_a                    13.552164
_cell_length_b                    13.555326
_cell_length_c                    28.472844
_cell_angle_alpha                 90.368092
_cell_angle_beta                  90.291869
_cell_angle_gamma                 60.151965
_cell_volume                      4536.62723141

loop_
_atom_site_label
_atom_site_type_symbol
_atom_type_description
_atom_site_fract_x
_atom_site_fract_y
_atom_site_fract_z
_atom_type_partial_charge
C1    C     C_R   0.279827 0.620485 0.566566 0.544009
C2    C     C_1   0.639586 0.634900 0.611864 0.038957
C3    C     C_3   0.722718 0.726979 0.759076 0.059448
C4    C     C_3   0.667496 0.685927 0.795236 -0.008551
C5    C     C_3   0.767539 0.615358 0.731433 0.443625
C6    C     C_3   0.657031 0.670751 0.702365 -0.010096
C7    C     C_3   0.711877 0.574029 0.767493 0.457565
C8    C     C_3   0.601816 0.629826 0.738582 0.078277
C9    C     C_1   0.680245 0.693841 0.845661 0.031192
C10   C     C_1   0.649418 0.655247 0.652107 0.033493
C11   C     C_1   0.631827 0.232835 0.612099 0.025786
C12   C     C_R   0.621954 0.601162 0.566577 0.547676
C13   C     C_R   0.763695 0.102607 0.721303 -0.077985
C14   C     C_R   0.777082 0.086260 0.769795 0.415500
C15   C     C_R   0.587076 0.246121 0.781886 -0.122454
C16   C     C_R   0.572720 0.263057 0.733134 0.128685
C17   C     C_R   0.661792 0.189954 0.702847 0.014725
C18   C     C_R   0.688685 0.158008 0.800130 0.041066
C19   C     C_1   0.697997 0.133763 0.849489 0.032321
C20   C     C_1   0.649337 0.207584 0.652930 -0.000076
C21   C     C_1   0.706924 0.104493 0.889811 0.033396
C22   C     C_1   0.232680 0.636391 0.612621 0.055351
C23   C     C_R   0.600632 0.279317 0.565962 0.546361
C24   C     C_R   0.150087 0.587517 0.725455 0.382114
C25   C     C_R   0.137178 0.592950 0.774207 0.378999
C26   C     C_R   0.196345 0.735708 0.778615 0.077253
C27   C     C_R   0.208903 0.729863 0.729464 0.324452
C28   C     C_R   0.185298 0.656342 0.703048 -0.041764
C29   C     C_R   0.160435 0.666473 0.800855 -0.043862
C30   C     C_1   0.136511 0.678931 0.850397 0.065733
C31   C     C_1   0.205901 0.646358 0.653326 0.089374
C32   C     C_1   0.107221 0.697043 0.890823 0.044079
C33   C     C_1   0.635519 0.632016 0.388149 0.003992
C34   C     C_R   0.276549 0.621103 0.434484 0.543946
C35   C     C_R   0.652602 0.578063 0.267078 0.133121
C36   C     C_R   0.657611 0.589075 0.218416 0.124050
C37   C     C_R   0.648923 0.772130 0.230263 0.131023
C38   C     C_R   0.645338 0.760424 0.278997 0.143469
C39   C     C_R   0.647896 0.663061 0.297476 -0.012978
C40   C     C_R   0.655909 0.685996 0.199944 -0.026175
C41   C     C_1   0.670909 0.693439 0.150362 -0.066675
C42   C     C_1   0.642954 0.650029 0.347417 -0.055786
C43   C     C_1   0.690950 0.701965 0.110027 -0.000577
C44   C     C_1   0.632046 0.228937 0.388353 0.036614
C45   C     C_R   0.620319 0.600436 0.434116 0.545972
C46   C     C_R   0.564207 0.258527 0.269377 0.081241
C47   C     C_R   0.575403 0.245649 0.220413 0.360091
C48   C     C_R   0.771501 0.094066 0.229778 0.376623
C49   C     C_R   0.761379 0.106685 0.278330 0.414104
C50   C     C_R   0.658045 0.187844 0.298062 -0.035383
C51   C     C_R   0.678646 0.163392 0.200983 -0.021452
C52   C     C_1   0.686106 0.139858 0.151934 0.087344
C53   C     C_1   0.648612 0.203437 0.347741 0.061008
C54   C     C_1   0.696037 0.108855 0.111993 0.049390
C55   C     C_1   0.226124 0.637608 0.389488 0.033041
C56   C     C_R   0.600317 0.277315 0.433791 0.538772
C57   C     C_R   0.079756 0.659935 0.281323 0.439674
C58   C     C_R   0.064825 0.662679 0.232429 0.139099
C59   C     C_R   0.255240 0.637994 0.221717 0.104511
C60   C     C_R   0.268465 0.635276 0.270443 -0.166777
C61   C     C_R   0.180850 0.647470 0.299837 0.017720
C62   C     C_R   0.152749 0.652809 0.202911 0.062061
C63   C     C_1   0.131997 0.669243 0.153590 0.045257
C64   C     C_1   0.198608 0.644635 0.349194 0.041774
C65   C     C_1   0.103625 0.691346 0.113479 0.034749
C66   C     C_R   0.720675 0.055274 0.935300 0.546942
C67   C     C_3   0.611919 0.784302 0.729769 -0.151320
C68   C     C_R   0.730560 0.717808 0.932245 0.547428
C69   C     C_R   0.057472 0.729281 0.936457 0.543195
C70   C     C_R   0.714511 0.056351 0.067294 0.542959
C71   C     C_R   0.725423 0.717229 0.064696 0.547994
C72   C     C_R   0.053858 0.727433 0.068531 0.547391
C73   C     C_3   0.555407 0.742266 0.766497 -0.165243
C74   C     C_1   0.698512 0.702553 0.886273 0.036744
Cr1   Cr    Cr6+3 0.413560 0.417690 0.499580 1.076736
Cr2   Cr    Cr6+3 0.418030 0.668340 0.500400 1.066513
Cr3   Cr    Cr6+3 0.668390 0.413960 0.499990 1.074708
Cr4   Cr    Cr6+3 0.919710 0.916540 0.003080 1.075077
Cr5   Cr    Cr6+3 0.665300 0.919470 0.999630 1.059410
Cr6   Cr    Cr6+3 0.916060 0.665490 0.000390 1.074145
H1    H     H_    0.468183 0.792012 0.781040 0.160955
H2    H     H_    0.573434 0.870443 0.714120 0.162049
H3    H     H_    0.346742 0.624744 0.285567 0.114647
H4    H     H_    0.832445 0.046680 0.698146 0.152260
H5    H     H_    0.518486 0.300040 0.805525 0.128640
O1    O     O_R   0.503010 0.303330 0.550820 -0.490929
O2    O     O_R   0.522480 0.657560 0.452870 -0.497174
O3    O     O_R   0.693670 0.502790 0.448900 -0.495336
O4    O     O_R   0.656970 0.319650 0.452000 -0.494654
O5    O     O_3   0.499990 0.499990 0.499990 -0.273714
O6    O     O_R   0.035380 0.825870 0.952240 -0.499392
O7    O     O_R   0.818010 0.012400 0.954990 -0.485551
O8    O     O_R   0.644810 0.033340 0.949080 -0.502444
O9    O     O_R   0.674910 0.816000 0.950960 -0.497742
O10   O     O_R   0.827060 0.642880 0.947470 -0.484368
O11   O     O_R   0.013800 0.673690 0.954100 -0.485082
O12   O     O_R   0.320040 0.522690 0.547470 -0.486860
O13   O     O_R   0.031250 0.825430 0.055080 -0.493927
O14   O     O_R   0.814180 0.011990 0.050320 -0.488198
O15   O     O_R   0.640680 0.032900 0.051920 -0.501610
O16   O     O_R   0.671090 0.815590 0.046300 -0.494632
O17   O     O_R   0.822940 0.642440 0.050310 -0.501262
O18   O     O_R   0.009970 0.673280 0.049430 -0.497075
O19   O     O_3   0.833690 0.833830 0.001040 -0.267649
O20   O     O_R   0.303930 0.694040 0.551750 -0.489302
O21   O     O_R   0.523510 0.657900 0.548240 -0.494906
O22   O     O_R   0.694770 0.503160 0.551780 -0.485170
O23   O     O_R   0.657990 0.319990 0.547370 -0.490082
O24   O     O_R   0.501900 0.302960 0.447930 -0.498478
O25   O     O_R   0.319020 0.522350 0.452090 -0.492187
O26   O     O_R   0.302820 0.693680 0.448870 -0.500054
N1    N     N_3   0.467431 0.352011 0.714147 -0.570552
H6    H     H_    0.484582 0.410358 0.697543 0.245506
H7    H     H_    0.409926 0.396483 0.741135 0.235962
F1    F     F_    0.128659 0.514990 0.700132 -0.515785
F2    F     F_    0.100557 0.527578 0.795435 -0.548539
N2    N     N_3   0.218686 0.811744 0.806227 -0.595025
H8    H     H_    0.140526 0.876985 0.818485 0.281088
H9    H     H_    0.253517 0.850229 0.785620 0.292961
F3    F     F_    0.243539 0.795812 0.707230 -0.629750
N3    N     N_3   0.653199 0.479120 0.285105 -0.580225
H10   H     H_    0.723558 0.436275 0.307296 0.249628
H11   H     H_    0.579480 0.505771 0.304975 0.209115
N4    N     N_3   0.666382 0.499810 0.188267 -0.561552
H12   H     H_    0.598755 0.534764 0.164372 0.243829
H13   H     H_    0.742286 0.467103 0.169362 0.242686
N5    N     N_3   0.646896 0.871733 0.212152 -0.557476
H14   H     H_    0.721072 0.846457 0.192770 0.256536
H15   H     H_    0.577258 0.912804 0.189470 0.239471
N6    N     N_3   0.639939 0.848040 0.309231 -0.543274
H16   H     H_    0.566560 0.879304 0.329751 0.233583
H17   H     H_    0.710636 0.811814 0.331574 0.273181
N7    N     N_3   0.458176 0.340687 0.290456 -0.585159
H18   H     H_    0.470282 0.404024 0.305892 0.213784
H19   H     H_    0.394630 0.380598 0.265083 0.298818
F4    F     F_    0.485963 0.310859 0.191772 -0.612513
F5    F     F_    0.870882 0.012454 0.210814 -0.576360
F6    F     F_    0.851697 0.039250 0.306103 -0.557502
F7    F     F_    0.996482 0.670175 0.310764 -0.616044
N8    N     N_3   0.960387 0.678312 0.212261 -0.588717
H20   H     H_    0.901324 0.690792 0.238359 0.295638
H21   H     H_    0.978846 0.602883 0.194883 0.221662
N9    N     N_3   0.344460 0.627181 0.191282 -0.572110
H22   H     H_    0.316689 0.706302 0.175637 0.233376
H23   H     H_    0.416905 0.609243 0.210885 0.249000
N10   N     N_3   0.536407 0.574382 0.726837 -0.599616
H24   H     H_    0.503561 0.562922 0.758158 0.246077
H25   H     H_    0.466972 0.631200 0.706549 0.267636
F8    F     F_    0.760951 0.466341 0.786676 -0.563014
F9    F     F_    0.876430 0.552180 0.713654 -0.515746
N11   N     N_3   0.789598 0.780843 0.771003 -0.570190
H26   H     H_    0.818766 0.796460 0.739556 0.263487
H27   H     H_    0.861364 0.721384 0.789478 0.289006
F10   F     F_    0.875260 0.999083 0.787075 -0.623824

loop_
_geom_bond_atom_site_label_1
_geom_bond_atom_site_label_2
_ccdc_geom_bond_type
C58   C62   A    
C15   C18   A    
C30   C32   T    
C63   C65   T    
Cr2   O20   S    
C47   F4    S    
C33   C45   S    
C14   C18   A    
C35   C39   A    
C35   C36   A    
C26   N2    S    
C69   O11   A    
C2    C12   S    
N1    H7    S    
C7    C8    S    
C72   O13   A    
C27   F3    S    
C13   H4    S    
Cr3   O4    S    
C26   C27   A    
C37   C38   A    
C48   F5    S    
Cr6   O19   S    
C33   C42   T    
C38   N6    S    
C45   O2    A    
N8    H21   S    
Cr5   O8    S    
C37   C40   A    
N2    H9    S    
C5    C6    S    
C21   C66   S    
C60   H3    S    
C68   C74   S    
C15   C16   A    
Cr1   O12   S    
C17   C20   S    
C57   F7    S    
C18   C19   S    
C36   C40   A    
Cr1   O5    S    
C7    F8    S    
C44   C53   T    
C48   C51   A    
C47   C51   A    
Cr3   O3    S    
C70   O15   A    
C16   C17   A    
C59   C62   A    
C23   O1    A    
Cr4   O13   S    
Cr2   O21   S    
N11   H26   S    
C26   C29   A    
C67   C73   S    
Cr6   O11   S    
C15   H5    S    
C71   O16   A    
C59   N9    S    
C1    C22   S    
C13   C14   A    
C14   F10   S    
C34   O26   A    
C41   C43   T    
C4    C7    S    
C73   H1    S    
N1    H6    S    
C52   C54   T    
C39   C42   S    
N10   H25   S    
C28   C31   S    
C25   C29   A    
Cr3   O5    S    
C8    N10   S    
C11   C20   T    
Cr1   O24   S    
C68   O10   A    
C22   C31   T    
Cr6   O18   S    
Cr4   O19   S    
C51   C52   S    
C50   C53   S    
Cr5   O15   S    
Cr3   O22   S    
C45   O3    A    
C24   C25   A    
Cr5   O9    S    
C25   F2    S    
C1    O12   A    
C5    C7    S    
C6    C8    S    
Cr4   O7    S    
C68   O9    A    
C5    F9    S    
Cr6   O17   S    
C60   C61   A    
C3    C4    S    
C61   C64   S    
N6    H17   S    
N5    H15   S    
C59   C60   A    
C29   C30   S    
C44   C56   S    
Cr1   O1    S    
C54   C70   S    
C35   N3    S    
C55   C64   T    
C62   C63   S    
C4    C73   S    
N8    H20   S    
Cr6   O10   S    
Cr2   O2    S    
N3    H10   S    
C24   F1    S    
C66   O8    A    
C40   C41   S    
C71   O17   A    
C69   O6    A    
N7    H18   S    
C34   O25   A    
Cr5   O19   S    
C9    C74   T    
N5    H14   S    
C2    C10   T    
C56   O24   A    
Cr4   O14   S    
C70   O14   A    
C16   N1    S    
N4    H13   S    
N10   H24   S    
C58   N8    S    
N9    H23   S    
C46   C47   A    
C56   O4    A    
Cr1   O25   S    
C43   C71   S    
C36   N4    S    
Cr3   O23   S    
C3    C67   S    
C24   C28   A    
C3    C5    S    
C6    C10   S    
C12   O22   A    
C66   O7    A    
C57   C61   A    
C32   C69   S    
C72   O18   A    
Cr4   O6    S    
C65   C72   S    
C46   C50   A    
C3    N11   S    
C13   C17   A    
N6    H16   S    
C6    C67   S    
N2    H8    S    
C46   N7    S    
C12   O21   A    
C57   C58   A    
C38   C39   A    
Cr2   O26   S    
C48   C49   A    
C23   O23   A    
C11   C23   S    
C8    C73   S    
N11   H27   S    
N3    H11   S    
C34   C55   S    
C67   H2    S    
C49   C50   A    
Cr2   O5    S    
C27   C28   A    
N7    H19   S    
Cr5   O16   S    
C37   N5    S    
C4    C9    S    
C49   F6    S    
N9    H22   S    
C1    O20   A    
N4    H12   S    
C19   C21   T    
