data_mof_unit_pretest_1899.cif
_audit_creation_date              2012-10-26T17:23:15-0400
_audit_creation_method            fapswitch 2.2
_symmetry_space_group_name_H-M    P1
_symmetry_Int_Tables_number       1
_space_group_crystal_system       triclinic
_cell_length_a                    42.565518
_cell_length_b                    29.421612
_cell_length_c                    30.745886
_cell_angle_alpha                 89.999175
_cell_angle_beta                  136.270438
_cell_angle_gamma                 90.00068
_cell_volume                      26616.4356756

loop_
_atom_site_label
_atom_site_type_symbol
_atom_type_description
_atom_site_fract_x
_atom_site_fract_y
_atom_site_fract_z
_atom_type_partial_charge
C1    C     C_R   0.585494 0.500000 0.585943 0.550963
C2    C     C_1   0.000571 0.999679 0.335946 -0.080562
C3    C     C_3   0.516593 0.549091 0.238876 -0.078793
C4    C     C_3   0.018502 0.951614 0.240781 -0.078768
C5    C     C_3   0.034479 0.036583 0.256182 -0.079963
C6    C     C_1   0.500162 0.500454 0.120023 -0.047847
C7    C     C_1   0.000166 0.999562 0.120027 -0.047871
C8    C     C_3   0.500938 0.500732 0.289886 0.046240
C9    C     C_3   0.000960 0.999309 0.289907 0.046236
C10   C     C_3   0.501152 0.501268 0.205861 0.081955
C11   C     C_3   0.001180 0.998792 0.205889 0.081960
C12   C     C_3   0.526193 0.415687 0.231609 -0.286610
C13   C     C_1   0.500226 0.500086 0.373926 -0.033111
C14   C     C_3   0.567087 0.384279 0.278852 -0.452066
C15   C     C_3   0.491960 0.590835 0.193430 -0.284509
C16   C     C_3   0.519725 0.612861 0.184752 -0.444598
C17   C     C_3   0.995531 0.908931 0.197001 -0.284578
C18   C     C_3   0.024139 0.888014 0.189167 -0.444696
C19   C     C_3   0.022817 0.085297 0.228233 -0.286632
C20   C     C_3   0.062438 0.118299 0.274198 -0.452096
C21   C     C_1   0.000232 0.999920 0.373933 -0.033110
C22   C     C_1   0.636540 0.500000 0.636898 -0.043792
C23   C     C_1   0.136540 0.000000 0.636898 -0.043788
C24   C     C_1   0.678861 0.500000 0.679142 -0.037143
C25   C     C_1   0.178861 0.000000 0.679142 -0.037139
C26   C     C_1   0.729024 0.500000 0.729217 0.001002
C27   C     C_1   0.229025 0.000000 0.729218 0.001006
C28   C     C_1   0.771345 0.500000 0.771469 0.001304
C29   C     C_R   0.085494 1.000000 0.585943 0.550968
C30   C     C_1   0.271345 0.000000 0.771469 0.001307
C31   C     C_1   0.821509 0.500000 0.821561 -0.035278
C32   C     C_1   0.321509 0.000000 0.821561 -0.035276
C33   C     C_R   0.499912 0.500008 0.418737 0.569400
C34   C     C_R   0.999911 0.999993 0.418736 0.569406
C35   C     C_1   0.863830 0.500000 0.863841 -0.039956
C36   C     C_1   0.363830 0.000000 0.863841 -0.039955
C37   C     C_1   0.499979 0.499999 0.635286 -0.044272
C38   C     C_1   0.999979 0.999999 0.635286 -0.044273
C39   C     C_1   0.499984 0.499999 0.676672 -0.030083
C40   C     C_3   0.452869 0.489676 0.174749 -0.212802
C41   C     C_1   0.999984 0.999999 0.676672 -0.030084
C42   C     C_1   0.499991 0.499999 0.726103 0.002369
C43   C     C_1   0.999991 0.999999 0.726103 0.002368
C44   C     C_1   0.499997 0.500000 0.767491 0.002341
C45   C     C_1   0.999997 0.999999 0.767491 0.002340
C46   C     C_1   0.500005 0.500000 0.816923 -0.030064
C47   C     C_1   0.000005 0.999999 0.816923 -0.030065
C48   C     C_1   0.500012 0.500000 0.858312 -0.043679
C49   C     C_1   0.000012 1.000000 0.858312 -0.043679
C50   C     C_1   0.363415 0.500000 0.363775 -0.043681
C51   C     C_3   0.952479 0.008462 0.174366 -0.212779
C52   C     C_1   0.863415 1.000000 0.363775 -0.043680
C53   C     C_1   0.321095 0.500000 0.321392 -0.037041
C54   C     C_1   0.821095 1.000000 0.321392 -0.037039
C55   C     C_1   0.270934 0.500000 0.271159 0.001090
C56   C     C_1   0.770934 1.000000 0.271159 0.001093
C57   C     C_R   0.414457 0.500000 0.414897 0.550894
C58   C     C_R   0.914457 1.000000 0.414897 0.550894
C59   C     C_1   0.228615 0.500000 0.228783 0.001365
C60   C     C_1   0.728615 1.000000 0.228783 0.001369
C61   C     C_1   0.178455 0.500000 0.178560 -0.035261
C62   C     C_3   0.453595 0.486660 0.225392 -0.220376
C63   C     C_1   0.678454 0.000000 0.178560 -0.035257
C64   C     C_1   0.136135 0.500000 0.136197 -0.039961
C65   C     C_1   0.636135 0.000000 0.136197 -0.039957
C66   C     C_R   0.500034 0.585445 0.994608 0.549856
C67   C     C_R   0.500034 0.414554 0.994573 0.550332
C68   C     C_R   0.000034 0.085446 0.994574 0.550344
C69   C     C_R   0.000034 0.914555 0.994607 0.549904
C70   C     C_R   0.500035 0.499844 0.074807 0.566136
C71   C     C_R   0.000035 0.000150 0.074807 0.566177
C72   C     C_R   0.500024 0.500000 0.908661 0.545760
C73   C     C_3   0.953093 0.011496 0.224898 -0.220395
C74   C     C_R   0.000024 1.000000 0.908661 0.545760
C75   C     C_R   0.000016 0.414865 0.999131 0.547728
C76   C     C_R   0.000016 0.585135 0.999132 0.547719
C77   C     C_R   0.500016 0.914865 0.999133 0.547716
C78   C     C_R   0.500016 0.085135 0.999131 0.547730
C79   C     C_R   0.914876 0.500000 0.914881 0.547796
C80   C     C_R   0.414876 0.000000 0.914881 0.547794
C81   C     C_R   0.085092 0.500000 0.085123 0.547822
C82   C     C_R   0.585092 0.000000 0.085123 0.547822
C83   C     C_1   0.500050 0.636494 0.995477 -0.045908
C84   C     C_1   0.500619 0.501126 0.158798 -0.076936
C85   C     C_1   0.500049 0.363503 0.995419 -0.044951
C86   C     C_1   0.000049 0.136496 0.995421 -0.044955
C87   C     C_1   0.000050 0.863506 0.995475 -0.045869
C88   C     C_R   0.499974 0.500000 0.584944 0.545539
C89   C     C_R   0.999974 1.000000 0.584944 0.545539
C90   C     C_1   0.500053 0.678816 0.996214 -0.038775
C91   C     C_1   0.500052 0.321181 0.996147 -0.037865
C92   C     C_1   0.000052 0.178819 0.996149 -0.037875
C93   C     C_1   0.000054 0.821184 0.996212 -0.038767
C94   C     C_1   0.500050 0.728984 0.997066 -0.000077
C95   C     C_1   0.000640 0.998915 0.158819 -0.076961
C96   C     C_1   0.500050 0.271013 0.997004 0.000478
C97   C     C_1   0.000050 0.228987 0.997007 0.000461
C98   C     C_1   0.000052 0.771016 0.997064 -0.000074
C99   C     C_1   0.000044 0.271310 0.997698 0.000915
C100  C     C_1   0.000046 0.728692 0.997742 0.000686
C101  C     C_1   0.500045 0.771308 0.997744 0.000681
C102  C     C_1   0.500044 0.228690 0.997696 0.000932
C103  C     C_1   0.000036 0.321480 0.998437 -0.035460
C104  C     C_1   0.000037 0.678521 0.998460 -0.035539
C105  C     C_1   0.500036 0.821479 0.998462 -0.035541
C106  C     C_1   0.500557 0.500342 0.335932 -0.080559
C107  C     C_1   0.500036 0.178519 0.998435 -0.035447
C108  C     C_1   0.000027 0.363807 0.998914 -0.040072
C109  C     C_1   0.000028 0.636194 0.998922 -0.040111
C110  C     C_1   0.500028 0.863806 0.998923 -0.040112
C111  C     C_1   0.500027 0.136193 0.998912 -0.040064
C112  C     C_3   0.512101 0.549121 0.284696 -0.210918
C113  C     C_3   0.537096 0.466875 0.309270 -0.200821
C114  C     C_3   0.035744 0.034575 0.307916 -0.200791
C115  C     C_3   0.014029 0.951404 0.286621 -0.210917
C116  C     C_3   0.535917 0.464822 0.257623 -0.079939
Cu1   Cu    Cu3+1 0.499970 0.542470 0.500570 0.944932
Cu2   Cu    Cu3+1 0.499990 0.000000 0.958110 0.950523
Cu3   Cu    Cu3+1 0.999980 0.500000 0.041890 0.944913
Cu4   Cu    Cu3+1 0.499980 0.000000 0.041890 0.944928
Cu5   Cu    Cu3+1 0.499970 0.457530 0.500570 0.944721
Cu6   Cu    Cu3+1 0.999970 0.042470 0.500570 0.944700
Cu7   Cu    Cu3+1 0.999970 0.957530 0.500570 0.944935
Cu8   Cu    Cu3+1 0.542500 0.500000 0.035600 0.941173
Cu9   Cu    Cu3+1 0.042500 0.000000 0.035600 0.941087
Cu10  Cu    Cu3+1 0.457550 0.500000 0.950640 0.943716
Cu11  Cu    Cu3+1 0.957550 0.000000 0.950640 0.943750
Cu12  Cu    Cu3+1 0.999990 0.500000 0.958110 0.950514
H1    H     H_    0.553582 0.552701 0.268772 0.130474
H2    H     H_    0.484769 0.572543 0.268524 0.121876
H3    H     H_    0.987652 0.926915 0.271411 0.121908
H4    H     H_    0.028119 0.068298 0.315007 0.128872
H5    H     H_    0.426783 0.509222 0.212261 0.118664
H6    H     H_    0.445626 0.451267 0.227741 0.118747
H7    H     H_    0.943728 0.046542 0.225855 0.118695
H8    H     H_    0.927199 0.987885 0.212684 0.118697
H9    H     H_    0.427831 0.515827 0.139491 0.113896
H10   H     H_    0.440625 0.456942 0.148710 0.112791
H11   H     H_    0.938950 0.040689 0.147046 0.112847
H12   H     H_    0.570206 0.474520 0.279577 0.126752
H13   H     H_    0.928493 0.981344 0.140158 0.113873
H14   H     H_    0.596828 0.397294 0.290168 0.151741
H15   H     H_    0.576236 0.381459 0.322912 0.149611
H16   H     H_    0.558682 0.349802 0.258145 0.147946
H17   H     H_    0.496480 0.401023 0.219235 0.149723
H18   H     H_    0.518044 0.415707 0.188213 0.156476
H19   H     H_    0.552323 0.626121 0.230442 0.146460
H20   H     H_    0.527103 0.588318 0.165749 0.161660
H21   H     H_    0.500338 0.641730 0.151315 0.146743
H22   H     H_    0.458138 0.581339 0.146561 0.155100
H23   H     H_    0.069123 0.028251 0.278488 0.126735
H24   H     H_    0.486070 0.617872 0.212141 0.143012
H25   H     H_    0.030543 0.912827 0.169188 0.161967
H26   H     H_    0.057235 0.876048 0.235353 0.146464
H27   H     H_    0.005902 0.858403 0.156884 0.146696
H28   H     H_    0.990711 0.881684 0.216785 0.143048
H29   H     H_    0.961361 0.917086 0.149785 0.155032
H30   H     H_    0.071473 0.121475 0.318144 0.149624
H31   H     H_    0.092667 0.106473 0.285998 0.151729
H32   H     H_    0.052673 0.152416 0.252134 0.147966
H33   H     H_    0.014670 0.084957 0.184839 0.156431
H34   H     H_    0.055604 0.949470 0.270779 0.130491
H35   H     H_    0.992550 0.098773 0.215308 0.149747
H36   H     H_    0.544460 0.561376 0.331774 0.107387
H37   H     H_    0.571499 0.477815 0.354566 0.104686
H38   H     H_    0.070555 0.025008 0.353615 0.104705
H39   H     H_    0.046853 0.940442 0.334155 0.107327
H40   H     H_    0.530813 0.432875 0.317701 0.128846
O1    O     O_R   0.561950 0.535860 0.562460 -0.483587
O2    O     O_R   0.500010 0.061990 0.963800 -0.481936
O3    O     O_R   0.000000 0.438000 0.034540 -0.482640
O4    O     O_R   0.000000 0.562000 0.034540 -0.482678
O5    O     O_R   0.500000 0.938000 0.034540 -0.482680
O6    O     O_R   0.500000 0.062000 0.034540 -0.482634
O7    O     O_R   0.938010 0.500000 0.902650 -0.481646
O8    O     O_R   0.438010 0.000000 0.902650 -0.481645
O9    O     O_R   0.938010 0.500000 0.973390 -0.482952
O10   O     O_R   0.438010 0.000000 0.973390 -0.482953
O11   O     O_R   0.061960 0.500000 0.026610 -0.481494
O12   O     O_R   0.561950 0.464140 0.562460 -0.483700
O13   O     O_R   0.561960 0.000000 0.026610 -0.481494
O14   O     O_R   0.061960 0.500000 0.097350 -0.482981
O15   O     O_R   0.561960 0.000000 0.097350 -0.482980
O16   O     O_R   0.499980 0.535870 0.439370 -0.496420
O17   O     O_R   0.499980 0.464130 0.439370 -0.496629
O18   O     O_R   0.999980 0.035870 0.439370 -0.496641
O19   O     O_R   0.999980 0.964130 0.439370 -0.496416
O20   O     O_R   0.438000 0.535860 0.438500 -0.483707
O21   O     O_R   0.438000 0.464140 0.438500 -0.483657
O22   O     O_R   0.938000 0.035860 0.438500 -0.483663
O23   O     O_R   0.061950 0.035860 0.562460 -0.483695
O24   O     O_R   0.938000 0.964140 0.438500 -0.483702
O25   O     O_R   0.499970 0.535850 0.561590 -0.480429
O26   O     O_R   0.499970 0.464150 0.561590 -0.480426
O27   O     O_R   0.999970 0.035850 0.561590 -0.480427
O28   O     O_R   0.999970 0.964150 0.561590 -0.480429
O29   O     O_R   0.535890 0.561890 0.029840 -0.483863
O30   O     O_R   0.535890 0.438110 0.029840 -0.483343
O31   O     O_R   0.035890 0.061890 0.029840 -0.483310
O32   O     O_R   0.035890 0.938110 0.029840 -0.483918
O33   O     O_R   0.464160 0.561920 0.958100 -0.483059
O34   O     O_R   0.061950 0.964140 0.562460 -0.483590
O35   O     O_R   0.464160 0.438080 0.958100 -0.483422
O36   O     O_R   0.964160 0.061920 0.958100 -0.483442
O37   O     O_R   0.964160 0.938080 0.958100 -0.483017
O38   O     O_R   0.535890 0.500000 0.090110 -0.496574
O39   O     O_R   0.035890 0.000000 0.090110 -0.496669
O40   O     O_R   0.464150 0.500000 0.018360 -0.493853
O41   O     O_R   0.964150 0.000000 0.018360 -0.493845
O42   O     O_R   0.535900 0.500000 0.967880 -0.481204
O43   O     O_R   0.035900 0.000000 0.967880 -0.481202
O44   O     O_R   0.464160 0.500000 0.896130 -0.481334
O45   O     O_R   0.964160 0.000000 0.896130 -0.481336
O46   O     O_R   0.000010 0.438010 0.963800 -0.481934
O47   O     O_R   0.000010 0.561990 0.963800 -0.481907
O48   O     O_R   0.500010 0.938010 0.963800 -0.481906

loop_
_geom_bond_atom_site_label_1
_geom_bond_atom_site_label_2
_ccdc_geom_bond_type
C99   C103  S    
C105  C110  T    
C14   H14   S    
C96   C102  T    
C5    C114  S    
C68   O36   A    
C68   C86   S    
C37   C88   S    
C19   C20   S    
C78   O2    A    
Cu6   O27   S    
C67   O30   A    
C113  H40   S    
C63   C65   T    
Cu9   O43   S    
Cu1   O16   S    
C3    C15   S    
Cu6   O23   S    
C47   C49   T    
C115  H3    S    
C57   O21   A    
C38   C89   S    
C9    C73   S    
C60   C63   S    
C9    C114  S    
C32   C36   T    
C62   H5    S    
C16   H19   S    
C24   C26   S    
C5    C11   S    
C55   C59   T    
C8    C62   S    
C8    C112  S    
C113  H37   S    
C104  C109  T    
C1    O12   A    
Cu6   O18   S    
C114  H4    S    
Cu2   O2    S    
Cu8   O29   S    
C70   O40   A    
C15   C16   S    
C89   O27   A    
Cu8   O30   S    
C100  C104  S    
C40   C62   S    
C10   C40   S    
C19   H33   S    
C12   H18   S    
C76   O4    A    
Cu4   O10   S    
C57   O20   A    
Cu1   Cu5   S    
C4    C115  S    
C91   C96   S    
C66   O33   A    
Cu11  O41   S    
C72   O42   A    
C73   H7    S    
C94   C101  T    
Cu10  O40   S    
C76   C109  S    
C71   O41   A    
C20   H31   S    
C40   H10   S    
C58   O22   A    
C69   O32   A    
C79   O9    A    
C114  H38   S    
C78   C111  S    
C7    C71   S    
Cu5   O12   S    
C17   H29   S    
Cu11  O36   S    
C18   H26   S    
Cu3   O4    S    
C113  C116  S    
Cu3   Cu12  S    
C22   C24   T    
C71   O39   A    
C66   C83   S    
Cu2   O8    S    
C1    C22   S    
C20   H30   S    
C27   C30   T    
C101  C105  S    
C41   C43   S    
C34   O19   A    
C42   C44   T    
C81   O14   A    
C48   C72   S    
C15   H24   S    
C97   C99   T    
C52   C54   T    
C92   C97   S    
C90   C94   S    
C39   C42   S    
C14   H16   S    
C45   C47   S    
Cu10  O33   S    
C85   C91   T    
C112  H36   S    
Cu6   O22   S    
C46   C48   T    
C59   C61   S    
C50   C53   T    
C6    C84   T    
C9    C115  S    
C88   O26   A    
Cu1   O25   S    
C80   O8    A    
C38   C41   T    
C36   C80   S    
Cu11  O45   S    
C21   C34   S    
C44   C46   S    
C89   O28   A    
C82   O15   A    
Cu9   O39   S    
C56   C60   T    
C8    C106  S    
Cu3   O14   S    
C80   O10   A    
C12   H17   S    
C61   C64   T    
C13   C33   S    
C79   O7    A    
C82   O13   A    
C73   H8    S    
C3    C112  S    
C40   H9    S    
C2    C21   T    
C29   O23   A    
C17   C18   S    
C33   O16   A    
C102  C107  S    
Cu12  O11   S    
C19   H35   S    
C4    C11   S    
C43   C45   T    
C81   O11   A    
C16   H21   S    
C18   H25   S    
C52   C58   S    
C8    C113  S    
C4    C17   S    
Cu4   O6    S    
C12   C14   S    
C98   C100  T    
Cu9   O32   S    
C68   O31   A    
C74   O45   A    
C58   O24   A    
C4    H34   S    
Cu7   O28   S    
C35   C79   S    
C25   C27   S    
C53   C55   S    
C115  H39   S    
C23   C29   S    
Cu5   O26   S    
C1    O1    A    
C10   C116  S    
Cu8   Cu10  S    
Cu2   O13   S    
C11   C95   S    
C6    C70   S    
C83   C90   T    
C14   H15   S    
Cu12  O7    S    
C77   O5    A    
C29   O34   A    
C75   O46   A    
Cu7   O34   S    
Cu8   O38   S    
C3    H1    S    
C50   C57   S    
C107  C111  T    
C88   O25   A    
C51   H13   S    
C28   C31   S    
C51   C73   S    
C13   C106  T    
C116  H12   S    
Cu1   O20   S    
C69   C87   S    
Cu2   O48   S    
C54   C56   S    
C5    C19   S    
Cu10  O35   S    
C70   O38   A    
C7    C95   T    
C75   O3    A    
C26   C28   T    
C5    H23   S    
Cu1   O1    S    
C74   O43   A    
C16   H20   S    
C62   H6    S    
Cu11  O37   S    
C37   C39   T    
C3    C10   S    
C86   C92   T    
C30   C32   S    
C17   H28   S    
C76   O47   A    
C65   C82   S    
C72   O44   A    
C67   C85   S    
Cu8   O42   S    
Cu7   O24   S    
C87   C93   T    
C10   C84   S    
C31   C35   T    
Cu10  O44   S    
C11   C51   S    
Cu7   O19   S    
C77   C110  S    
Cu4   O15   S    
Cu2   Cu4   S    
C64   C81   S    
C66   O29   A    
C67   O35   A    
Cu12  O47   S    
Cu5   O17   S    
C69   O37   A    
Cu4   O5    S    
C75   C108  S    
C23   C25   T    
Cu9   O31   S    
C20   H32   S    
C34   O18   A    
Cu12  O46   S    
Cu9   Cu11  S    
C78   O6    A    
C49   C74   S    
C103  C108  T    
C33   O17   A    
Cu3   O9    S    
C112  H2    S    
Cu6   Cu7   S    
C2    C9    S    
C93   C98   S    
C15   H22   S    
C18   H27   S    
Cu5   O21   S    
C77   O48   A    
Cu3   O3    S    
C12   C116  S    
C51   H11   S    
