data_mof_unit_pretest_861.cif
_audit_creation_date              2012-12-11T15:35:03-0500
_audit_creation_method            fapswitch 2.2
_symmetry_space_group_name_H-M    P1
_symmetry_Int_Tables_number       1
_space_group_crystal_system       triclinic
_cell_length_a                    30.548357
_cell_length_b                    7.247418
_cell_length_c                    25.963732
_cell_angle_alpha                 89.999891
_cell_angle_beta                  112.024281
_cell_angle_gamma                 89.999825
_cell_volume                      5328.80392586

loop_
_atom_site_label
_atom_site_type_symbol
_atom_type_description
_atom_site_fract_x
_atom_site_fract_y
_atom_site_fract_z
_atom_type_partial_charge
O1    O     O_R   0.295360 0.592990 0.320420 -0.531501
O2    O     O_R   0.704640 0.407010 0.679580 -0.531362
O3    O     O_R   0.204640 0.092990 0.179580 -0.531501
O4    O     O_R   0.795360 0.907010 0.820420 -0.531362
O5    O     O_R   0.294060 0.265620 0.213230 -0.540550
O6    O     O_R   0.705940 0.734380 0.786770 -0.540526
O7    O     O_R   0.205940 0.765620 0.286770 -0.540550
O8    O     O_R   0.794060 0.234380 0.713230 -0.540526
C1    C     C_R   0.304165 0.432317 0.199544 0.700090
C2    C     C_R   0.695839 0.567684 0.800460 0.699999
C3    C     C_R   0.195835 0.932317 0.300456 0.700087
C4    C     C_R   0.804161 0.067684 0.699540 0.699998
O9    O     O_R   0.300850 0.263360 0.322080 -0.534599
O10   O     O_R   0.699150 0.736640 0.677920 -0.534761
O11   O     O_R   0.199150 0.763360 0.177920 -0.534599
O12   O     O_R   0.800850 0.236640 0.822080 -0.534761
O13   O     O_R   0.211480 0.091820 0.289210 -0.537323
O14   O     O_R   0.788520 0.908180 0.710790 -0.537330
O15   O     O_R   0.288520 0.591820 0.210790 -0.537323
O16   O     O_R   0.711480 0.408180 0.789210 -0.537329
C5    C     C_R   0.313223 0.431334 0.343262 0.685706
C6    C     C_R   0.686777 0.568661 0.656738 0.685618
C7    C     C_R   0.186777 0.931335 0.156738 0.685705
C8    C     C_R   0.813223 0.068660 0.843262 0.685617
O17   O     O_3   0.220670 0.426670 0.239090 -0.373327
O18   O     O_3   0.779330 0.573330 0.760910 -0.373334
O19   O     O_3   0.279330 0.926670 0.260910 -0.373326
O20   O     O_3   0.720670 0.073330 0.739090 -0.373334
V1    V     V_3+5 0.255440 0.152290 0.252020 1.442688
V2    V     V_3+5 0.744560 0.847710 0.747980 1.442264
V3    V     V_3+5 0.244560 0.652290 0.247980 1.442687
V4    V     V_3+5 0.755440 0.347710 0.752020 1.442263
C9    C     C_R   0.850038 0.065057 0.899717 -0.043585
C10   C     C_R   0.149948 0.934843 0.100293 -0.043659
C11   C     C_R   0.649961 0.565063 0.600283 -0.043588
C12   C     C_R   0.350053 0.434837 0.399708 -0.043662
C13   C     C_R   0.873881 0.144736 0.996609 -0.051000
C14   C     C_R   0.126067 0.854495 0.003447 -0.052698
C15   C     C_R   0.626116 0.644791 0.503394 -0.051002
C16   C     C_R   0.373936 0.354438 0.496551 -0.052702
C17   C     C_R   0.839041 0.129772 0.943816 -0.183460
C18   C     C_R   0.160942 0.870117 0.056193 -0.183679
C19   C     C_R   0.660957 0.629811 0.556186 -0.183455
C20   C     C_R   0.339060 0.370078 0.443805 -0.183675
C21   C     C_R   0.896736 0.014965 0.908835 -0.160947
C22   C     C_R   0.103234 0.984635 0.091198 -0.160393
C23   C     C_R   0.603264 0.514953 0.591164 -0.160946
C24   C     C_R   0.396765 0.484647 0.408804 -0.160391
C25   C     C_R   0.933663 0.031398 0.962443 0.065606
C26   C     C_R   0.066266 0.967371 0.037648 0.066129
C27   C     C_R   0.566337 0.531402 0.537557 0.065609
C28   C     C_R   0.433735 0.467366 0.462352 0.066132
C29   C     C_R   0.921358 0.098430 0.006913 -0.008913
C30   C     C_R   0.078546 0.899820 0.993214 -0.008862
C31   C     C_R   0.578640 0.598470 0.493089 -0.008909
C32   C     C_R   0.421457 0.399779 0.506784 -0.008859
C33   C     C_R   0.982221 0.986857 0.972943 -0.009444
C34   C     C_R   0.017690 0.011520 0.027180 -0.009689
C35   C     C_R   0.517780 0.486845 0.527056 -0.009440
C36   C     C_R   0.482309 0.511531 0.472821 -0.009684
C37   C     C_R   0.003575 0.079089 0.069476 -0.219899
C38   C     C_R   0.996298 0.918465 0.930707 -0.221793
C39   C     C_R   0.496422 0.579138 0.430527 -0.219893
C40   C     C_R   0.503704 0.418415 0.569289 -0.221789
C41   C     C_R   0.956680 0.120714 0.060430 0.436132
C42   C     C_R   0.043166 0.876161 0.939798 0.434231
C43   C     C_R   0.543317 0.620777 0.439574 0.436134
C44   C     C_R   0.456838 0.376097 0.560198 0.434231
H1    H     H_    0.097144 0.030097 0.127384 0.106023
H2    H     H_    0.902862 0.970056 0.872620 0.105790
H3    H     H_    0.402853 0.530133 0.372619 0.106027
H4    H     H_    0.597140 0.470020 0.627378 0.105793
H5    H     H_    0.196776 0.829163 0.062795 0.115915
H6    H     H_    0.803236 0.171246 0.937180 0.115650
H7    H     H_    0.303227 0.329108 0.437203 0.115916
H8    H     H_    0.696760 0.671300 0.562822 0.115651
H9    H     H_    0.862880 0.196687 0.028800 0.199222
H10   H     H_    0.137098 0.803126 0.971215 0.200281
H11   H     H_    0.637115 0.696769 0.471204 0.199220
H12   H     H_    0.362907 0.303044 0.528780 0.200280
H13   H     H_    0.028676 0.102203 0.110759 0.176580
H14   H     H_    0.971163 0.894752 0.889479 0.176682
H15   H     H_    0.471320 0.602272 0.389246 0.176579
H16   H     H_    0.528841 0.394682 0.610515 0.176681
C45   C     C_R   0.072755 0.830309 0.458490 0.582304
C46   C     C_R   0.927186 0.169671 0.541436 0.580770
C47   C     C_R   0.427244 0.330309 0.041510 0.582304
C48   C     C_R   0.572814 0.669670 0.958564 0.580770
N1    N     N_R   0.072679 0.971138 0.422956 -0.558290
N2    N     N_R   0.927266 0.028846 0.576973 -0.558378
N3    N     N_R   0.427321 0.471138 0.077044 -0.558290
N4    N     N_R   0.572734 0.528847 0.923027 -0.558377
C49   C     C_R   0.044119 0.122696 0.417152 0.603368
C50   C     C_R   0.955822 0.877281 0.582772 0.605851
C51   C     C_R   0.455881 0.622695 0.082848 0.603364
C52   C     C_R   0.544178 0.377282 0.917228 0.605849
C53   C     C_R   0.015006 0.138009 0.448125 -0.031043
C54   C     C_R   0.984931 0.861961 0.551795 -0.031854
C55   C     C_R   0.484994 0.638008 0.051875 -0.031042
C56   C     C_R   0.515069 0.361961 0.948205 -0.031854
C57   C     C_R   0.014612 0.994022 0.484334 -0.015910
C58   C     C_R   0.985325 0.005947 0.515586 -0.016062
C59   C     C_R   0.485388 0.494022 0.015666 -0.015910
C60   C     C_R   0.514675 0.505947 0.984414 -0.016062
C61   C     C_R   0.043444 0.838174 0.489384 -0.028892
C62   C     C_R   0.956494 0.161797 0.510537 -0.027778
C63   C     C_R   0.456556 0.338175 0.010616 -0.028893
C64   C     C_R   0.543506 0.661796 0.989463 -0.027778
C65   C     C_R   0.986247 0.293505 0.443635 -0.135256
C66   C     C_R   0.013688 0.706461 0.556283 -0.132057
C67   C     C_R   0.513753 0.793503 0.056365 -0.135257
C68   C     C_R   0.486312 0.206463 0.943716 -0.132057
C69   C     C_R   0.957361 0.305233 0.474439 -0.147511
C70   C     C_R   0.042575 0.694735 0.525480 -0.145155
C71   C     C_R   0.542639 0.805231 0.025561 -0.147511
C72   C     C_R   0.457425 0.194736 0.974520 -0.145154
O21   O     O_2   0.101607 0.684025 0.464678 -0.520010
O22   O     O_2   0.898336 0.315960 0.535251 -0.520969
O23   O     O_2   0.398393 0.184026 0.035322 -0.520010
O24   O     O_2   0.601664 0.815959 0.964749 -0.520969
O25   O     O_2   0.043406 0.257702 0.381060 -0.507267
O26   O     O_2   0.956536 0.742274 0.618865 -0.506387
O27   O     O_2   0.456593 0.757700 0.118940 -0.507268
O28   O     O_2   0.543464 0.242276 0.881135 -0.506387
H17   H     H_    0.986018 0.407003 0.416392 0.176911
H18   H     H_    0.013918 0.592962 0.583526 0.177651
H19   H     H_    0.513982 0.907001 0.083608 0.176910
H20   H     H_    0.486083 0.092964 0.916474 0.177651
H21   H     H_    0.935768 0.427296 0.469894 0.174420
H22   H     H_    0.064168 0.572672 0.530025 0.175422
H23   H     H_    0.564232 0.927294 0.030106 0.174420
H24   H     H_    0.435832 0.072674 0.969975 0.175422
C73   C     C_R   0.864114 0.896823 0.604071 -0.078571
C74   C     C_R   0.135842 0.103181 0.395884 -0.077147
C75   C     C_R   0.601584 0.690974 0.857505 -0.053886
C76   C     C_R   0.364157 0.603181 0.104116 -0.077147
H25   H     H_    0.861578 0.779350 0.577329 0.153097
H26   H     H_    0.138370 0.220653 0.422623 0.153777
H27   H     H_    0.576611 0.801428 0.853327 0.167376
H28   H     H_    0.361630 0.720654 0.077377 0.153778
C77   C     C_R   0.834609 0.905392 0.634232 -0.187141
C78   C     C_R   0.165362 0.094612 0.365741 -0.187420
C79   C     C_R   0.631773 0.701413 0.828144 -0.187610
C80   C     C_R   0.334637 0.594612 0.134259 -0.187418
H29   H     H_    0.810014 0.793519 0.630130 0.132034
H30   H     H_    0.189960 0.206486 0.369853 0.132152
H31   H     H_    0.629524 0.820447 0.802054 0.148319
H32   H     H_    0.310040 0.706487 0.130147 0.132152
C81   C     C_R   0.836124 0.058190 0.668300 -0.056428
C82   C     C_R   0.163859 0.941811 0.331679 -0.056831
C83   C     C_R   0.663876 0.558191 0.831700 -0.056429
C84   C     C_R   0.336140 0.441811 0.168321 -0.056831
C85   C     C_R   0.868227 0.201412 0.671857 -0.187609
C86   C     C_R   0.131752 0.798593 0.328106 -0.186253
C87   C     C_R   0.665391 0.405392 0.865768 -0.187139
C88   C     C_R   0.368248 0.298592 0.171893 -0.186253
H33   H     H_    0.870476 0.320445 0.697946 0.148316
H34   H     H_    0.129511 0.679560 0.302019 0.148667
H35   H     H_    0.689987 0.293517 0.869870 0.132034
H36   H     H_    0.370489 0.179558 0.197980 0.148670
C89   C     C_R   0.898416 0.190973 0.642495 -0.053882
C90   C     C_R   0.101549 0.809032 0.357449 -0.054365
C91   C     C_R   0.635886 0.396823 0.895929 -0.078570
C92   C     C_R   0.398451 0.309030 0.142551 -0.054369
H37   H     H_    0.923389 0.301426 0.646673 0.167375
H38   H     H_    0.076573 0.698577 0.353260 0.167559
H39   H     H_    0.638422 0.279349 0.922671 0.153097
H40   H     H_    0.423427 0.198575 0.146740 0.167560
C93   C     C_R   0.896536 0.038942 0.608043 0.350205
C94   C     C_R   0.103418 0.961060 0.391898 0.349491
C95   C     C_R   0.603464 0.538943 0.891957 0.350204
C96   C     C_R   0.396582 0.461059 0.108102 0.349490
S1    S     S_3+6 0.943880 0.203189 0.117839 0.024501
O29   O     O_2   0.987474 0.206428 0.170133 -0.307929
O30   O     O_2   0.924203 0.395400 0.105433 -0.319604
O31   O     O_3   0.903560 0.064150 0.127554 -0.490720
H41   H     H_    0.895508 0.124736 0.157052 0.380940
S2    S     S_3+6 0.055821 0.790036 0.882671 0.019642
O32   O     O_2   0.011749 0.775891 0.831158 -0.309378
O33   O     O_2   0.090050 0.917718 0.871529 -0.315176
O34   O     O_3   0.080250 0.579335 0.898766 -0.501890
H42   H     H_    0.089013 0.544357 0.867013 0.386737
S3    S     S_3+6 0.556114 0.703300 0.382168 0.024498
O35   O     O_2   0.512519 0.706557 0.329875 -0.307930
O36   O     O_2   0.575789 0.895511 0.394583 -0.319611
O37   O     O_3   0.596434 0.564286 0.372444 -0.490720
H43   H     H_    0.604486 0.624900 0.342950 0.380939
S4    S     S_3+6 0.444185 0.289923 0.617322 0.019638
O38   O     O_2   0.488258 0.275760 0.668833 -0.309380
O39   O     O_2   0.409955 0.417581 0.628471 -0.315177
O40   O     O_3   0.419759 0.079223 0.601216 -0.501897
H44   H     H_    0.410996 0.044218 0.632967 0.386735

loop_
_geom_bond_atom_site_label_1
_geom_bond_atom_site_label_2
_ccdc_geom_bond_type
O17   V3    S    
C55   C59   A    
C25   C29   A    
C1    C84   S    
O1    C5    A    
C57   C58   A    
C54   C66   A    
C47   N3    A    
O19   V1    S    
O13   V1    S    
C78   H30   S    
O3    C7    A    
C72   H24   S    
C10   C18   A    
C56   C60   A    
C80   H32   S    
O15   V3    S    
S2    O32   D    
C77   C81   A    
C33   C38   A    
C5    C12   S    
C71   H23   S    
O34   H42   S    
C73   H25   S    
C6    C11   S    
C42   S2    S    
C35   C40   A    
C26   C30   A    
C69   H21   S    
N3    C96   S    
S4    O40   S    
C40   C44   A    
C64   C71   A    
O9    V1    S    
C49   O25   S    
N1    C94   S    
C14   C18   A    
S3    O36   D    
C48   C64   A    
C51   C55   A    
S2    O33   D    
C50   C54   A    
N4    C95   S    
C60   C64   A    
O1    V3    S    
C9    C21   A    
O2    V4    S    
O3    V1    S    
C73   C93   A    
C40   H16   S    
C22   H1    S    
C81   C85   A    
C28   C36   A    
C17   H6    S    
C90   H38   S    
C76   H28   S    
C1    O15   A    
C15   C31   A    
C76   C96   A    
S4    O39   D    
C2    O16   A    
C16   C32   A    
C90   C94   A    
O2    C6    A    
C82   C86   A    
C16   H12   S    
C58   C62   A    
C10   C22   A    
C83   C87   A    
C48   O24   S    
C11   C19   A    
C66   C70   A    
C16   C20   A    
C77   H29   S    
C13   C29   A    
C34   C37   A    
O11   C7    A    
C38   H14   S    
C11   C23   A    
C35   C36   A    
O12   C8    A    
C13   C17   A    
C70   H22   S    
C46   C62   A    
O10   V2    S    
C45   C61   A    
N2    C50   A    
O5    V1    S    
S1    O30   D    
N4    C52   A    
C57   C61   A    
C23   H4    S    
C39   C43   A    
O7    V3    S    
C38   C42   A    
C62   C69   A    
C87   H35   S    
O40   H44   S    
C26   C34   A    
C48   N4    A    
C61   C70   A    
C92   H40   S    
C84   C88   A    
C46   N2    A    
S3    O37   S    
C45   N1    A    
O18   V4    S    
C15   C19   A    
C91   C95   A    
C14   H10   S    
C87   C91   A    
S1    O29   D    
C13   H9    S    
O11   V3    S    
N1    C49   A    
O4    V2    S    
C39   H15   S    
S4    O38   D    
O8    V4    S    
C20   H7    S    
O7    C3    A    
S3    O35   D    
C47   O23   S    
C54   C58   A    
C2    C83   S    
C74   C78   A    
C53   C65   A    
C3    C82   S    
C31   C43   A    
C14   C30   A    
C88   H36   S    
C91   H39   S    
O8    C4    A    
C7    C10   S    
C55   C67   A    
C21   C25   A    
O9    C5    A    
C46   O22   S    
C45   O21   S    
C88   C92   A    
C43   S3    S    
C66   H18   S    
O14   V2    S    
C50   O26   S    
C52   O28   S    
C65   H17   S    
O31   H41   S    
O6    V2    S    
C79   H31   S    
C75   C95   A    
C36   C39   A    
C67   H19   S    
C92   C96   A    
C27   C35   A    
C24   H3    S    
C49   C53   A    
C68   C72   A    
C29   C41   A    
C59   C63   A    
O16   V4    S    
S1    O31   S    
C51   O27   S    
C19   H8    S    
C3    O13   A    
C18   H5    S    
C41   S1    S    
C21   H2    S    
C4    C81   S    
C86   C90   A    
O5    C1    A    
C74   H26   S    
C25   C33   A    
C23   C27   A    
C56   C68   A    
C30   C42   A    
C65   C69   A    
O12   V4    S    
C22   C26   A    
C73   C77   A    
C8    C9    S    
C75   H27   S    
C9    C17   A    
O10   C6    A    
O20   V2    S    
C89   C93   A    
C80   C84   A    
C32   C44   A    
C67   C71   A    
C78   C82   A    
C33   C34   A    
O4    C8    A    
C52   C56   A    
N2    C93   S    
C79   C83   A    
C75   C79   A    
C12   C24   A    
C27   C31   A    
C85   H33   S    
C89   H37   S    
C63   C72   A    
C68   H20   S    
S2    O34   S    
C12   C20   A    
O6    C2    A    
N3    C51   A    
C37   C41   A    
C24   C28   A    
C47   C63   A    
C44   S4    S    
C76   C80   A    
C74   C94   A    
C4    O14   A    
C59   C60   A    
C86   H34   S    
C37   H13   S    
O37   H43   S    
C85   C89   A    
C53   C57   A    
C28   C32   A    
C15   H11   S    
