data_mof_unit_pretest_1324.cif
_audit_creation_date              2012-12-11T19:09:50-0500
_audit_creation_method            fapswitch 2.2
_symmetry_space_group_name_H-M    P1
_symmetry_Int_Tables_number       1
_space_group_crystal_system       triclinic
_cell_length_a                    8.270189
_cell_length_b                    15.222365
_cell_length_c                    27.035
_cell_angle_alpha                 99.635467
_cell_angle_beta                  92.464923
_cell_angle_gamma                 81.411823
_cell_volume                      3317.28086763

loop_
_atom_site_label
_atom_site_type_symbol
_atom_type_description
_atom_site_fract_x
_atom_site_fract_y
_atom_site_fract_z
_atom_type_partial_charge
Ba1   Ba    Ba6+2 0.860050 0.456430 0.522540 1.645015
Ba2   Ba    Ba6+2 0.329780 0.543490 0.477450 1.664240
C1    C     C_3   0.667066 0.141729 0.652115 -0.255265
C2    C     C_R   0.830859 0.544428 0.171098 0.577708
C3    C     C_2   0.795656 0.589777 0.281068 -0.095587
C4    C     C_3   0.209507 0.275038 0.654126 0.304298
C5    C     C_3   0.755328 0.602578 0.336114 -0.120789
C6    C     C_1   0.986851 0.483935 0.343525 0.062255
C7    C     C_2   0.007523 0.465214 0.293976 -0.094572
C8    C     C_2   0.913672 0.524114 0.259316 0.205078
C9    C     C_R   0.022993 0.511060 0.102327 -0.079870
C10   C     C_R   0.138788 0.470890 0.134464 -0.040736
C11   C     C_R   0.288519 0.427178 0.114386 -0.039531
C12   C     C_3   0.696236 0.229064 0.635134 0.335409
C13   C     C_R   0.872275 0.553081 0.122149 -0.028855
C14   C     C_2   0.868461 0.543204 0.365327 -0.185345
C15   C     C_2   0.354040 0.483489 0.639455 -0.286816
C16   C     C_3   0.212868 0.259205 0.707993 -0.382566
C17   C     C_R   0.234586 0.452803 0.977907 0.019174
C18   C     C_R   0.982439 0.560379 0.968147 -0.005366
C19   C     C_R   0.127816 0.505164 0.947575 0.031584
C20   C     C_R   0.368929 0.394040 0.954675 -0.111273
C21   C     C_R   0.403925 0.390476 0.904421 -0.074937
C22   C     C_R   0.308298 0.446264 0.874854 -0.025752
C23   C     C_3   0.475457 0.685544 0.631904 0.309659
C24   C     C_R   0.170507 0.503599 0.896326 -0.078490
C25   C     C_R   0.077069 0.560075 0.866581 -0.041981
C26   C     C_R   0.126244 0.562972 0.817267 0.595237
C27   C     C_R   0.346986 0.444575 0.823967 0.576663
C28   C     C_3   0.260889 0.260803 0.393134 0.288762
C29   C     C_2   0.458522 0.494661 0.728379 -0.073412
C30   C     C_3   0.500840 0.494151 0.673906 -0.046188
C31   C     C_1   0.207932 0.518593 0.656131 0.040389
C32   C     C_2   0.168717 0.515385 0.702925 -0.117655
C33   C     C_2   0.300113 0.503824 0.742901 0.187196
C34   C     C_3   0.458817 0.717867 0.688000 -0.383640
C35   C     C_R   0.204586 0.459820 0.030125 0.015453
C36   C     C_R   0.057859 0.510209 0.050550 0.052387
C37   C     C_R   0.948123 0.562202 0.020590 0.015774
C38   C     C_R   0.319770 0.420465 0.063414 -0.102784
C39   C     C_R   0.768768 0.606948 0.093588 -0.068514
C40   C     C_3   0.323770 0.175737 0.356219 -0.233965
C41   C     C_R   0.880184 0.609502 0.934255 -0.011475
C42   C     C_R   0.933437 0.611704 0.885974 -0.078063
C43   C     C_R   0.813465 0.617367 0.046058 -0.111525
C44   C     C_R   0.349117 0.175028 0.534794 0.016227
C45   C     C_3   0.958159 0.767295 0.352931 0.335646
C46   C     C_R   0.577835 0.209660 0.490997 0.068490
C47   C     C_R   0.769655 0.775099 0.490543 -0.120515
C48   C     C_R   0.864183 0.834142 0.475987 0.048886
C49   C     C_R   0.809960 0.927408 0.484324 -0.178268
C50   C     C_R   0.657656 0.962812 0.507791 0.024569
C51   C     C_R   0.571955 0.900769 0.526618 -0.057951
C52   C     C_3   0.963261 0.737656 0.595769 0.353341
C53   C     C_R   0.583608 0.056017 0.511308 -0.004775
C54   C     C_R   0.427136 0.084523 0.534665 -0.017019
C55   C     C_R   0.354292 0.020818 0.555994 0.097372
C56   C     C_3   0.920058 0.814356 0.307400 -0.383838
C57   C     C_R   0.428118 0.932500 0.552390 -0.086423
C58   C     C_R   0.654668 0.120169 0.489431 -0.110062
C59   C     C_R   0.426914 0.235585 0.513748 -0.293717
C60   C     C_R   0.627772 0.806845 0.517660 0.007968
C61   C     C_3   0.925046 0.837585 0.617153 -0.105976
C62   C     C_3   0.784564 0.269593 0.366600 0.445583
C63   C     C_3   0.797183 0.206095 0.316294 -0.389992
C64   C     C_R   0.365385 0.093569 0.380702 0.010488
C65   C     C_R   0.516193 0.038073 0.371469 -0.044648
C66   C     C_R   0.545871 0.955800 0.388656 -0.108097
C67   C     C_3   0.434739 0.752187 0.324487 0.318836
C68   C     C_R   0.426557 0.929001 0.415711 -0.046448
C69   C     C_R   0.277438 0.984715 0.425691 -0.016664
C70   C     C_R   0.245593 0.065764 0.407539 -0.092385
C71   C     C_R   0.749354 0.130420 0.702053 0.105442
C72   C     C_R   0.920249 0.112372 0.705892 -0.090413
C73   C     C_R   0.996876 0.099443 0.751792 -0.077036
C74   C     C_R   0.903577 0.104870 0.794309 -0.048493
C75   C     C_R   0.733474 0.122913 0.790908 -0.055493
C76   C     C_R   0.656419 0.135469 0.744988 0.006246
C77   C     C_R   0.712355 0.657084 0.944216 0.030077
C78   C     C_3   0.430965 0.781559 0.273423 -0.380998
C79   C     C_R   0.678698 0.750670 0.944643 -0.078468
C80   C     C_R   0.521116 0.796495 0.954529 -0.061134
C81   C     C_R   0.396381 0.749524 0.964365 -0.051289
C82   C     C_R   0.428627 0.656564 0.963589 -0.068143
C83   C     C_R   0.584858 0.609748 0.952330 -0.061489
C84   C     C_R   0.105087 0.478535 0.186415 0.600015
H1    H     H_    0.827949 0.226043 0.628222 0.102444
H2    H     H_    0.820142 0.135258 0.322575 0.086523
H3    H     H_    0.900116 0.218657 0.294784 0.094790
H4    H     H_    0.682295 0.216280 0.293992 0.123065
H5    H     H_    0.626340 0.233677 0.599529 -0.012452
H6    H     H_    0.533088 0.141319 0.654104 0.082002
H7    H     H_    0.354272 0.672254 0.615983 0.049325
H8    H     H_    0.564942 0.622968 0.625315 0.026054
H9    H     H_    0.390547 0.787162 0.695103 0.133109
H10   H     H_    0.390779 0.673350 0.705039 0.075314
H11   H     H_    0.581810 0.718151 0.706114 0.118230
H12   H     H_    0.428502 0.188829 0.334966 0.109063
H13   H     H_    0.292671 0.303048 0.730895 0.138578
H14   H     H_    0.015482 0.696608 0.340184 0.063444
H15   H     H_    0.840144 0.767896 0.371485 -0.056996
H16   H     H_    0.026457 0.800130 0.282101 0.117826
H17   H     H_    0.814263 0.789056 0.286311 0.065221
H18   H     H_    0.888992 0.888602 0.319340 0.117816
H19   H     H_    0.556710 0.759563 0.342514 -0.081409
H20   H     H_    0.343603 0.798909 0.347897 0.097356
H21   H     H_    0.497202 0.840564 0.275604 0.074574
H22   H     H_    0.302898 0.801751 0.261391 0.108665
H23   H     H_    0.226230 0.159524 0.327376 0.107915
H24   H     H_    0.144734 0.343792 0.652962 0.072612
H25   H     H_    0.488470 0.726419 0.244891 0.155216
H26   H     H_    0.076579 0.401347 0.278348 0.113052
H27   H     H_    0.382347 0.396839 0.138023 0.129189
H28   H     H_    0.557862 0.492441 0.755882 0.118309
H29   H     H_    0.508841 0.344190 0.888936 0.117723
H30   H     H_    0.448116 0.347776 0.974197 0.067138
H31   H     H_    0.438956 0.386701 0.051598 0.069595
H32   H     H_    0.735878 0.641330 0.260928 0.105423
H33   H     H_    0.658228 0.647147 0.109576 0.111739
H34   H     H_    0.845821 0.712368 0.586231 -0.029020
H35   H     H_    0.337197 0.270045 0.641716 -0.013331
H36   H     H_    0.855908 0.651617 0.862038 0.122276
H37   H     H_    0.041631 0.519317 0.712132 0.149612
H38   H     H_    0.742319 0.672690 0.032039 0.088303
H39   H     H_    0.829283 0.537632 0.402133 0.074179
H40   H     H_    0.369407 0.450212 0.600782 0.073679
H41   H     H_    0.366947 0.303786 0.513725 0.065139
H42   H     H_    0.767636 0.101752 0.469455 0.081702
H43   H     H_    0.886840 0.969799 0.471395 0.066393
H44   H     H_    0.087790 0.275164 0.723272 0.135936
H45   H     H_    0.040941 0.729207 0.562278 0.038992
H46   H     H_    0.364192 0.887976 0.568835 0.125243
H47   H     H_    0.260746 0.187800 0.709902 0.107310
H48   H     H_    0.362351 0.299518 0.405191 0.060366
H49   H     H_    0.206580 0.245402 0.427242 -0.015704
H50   H     H_    0.608480 0.057047 0.349666 0.066529
H51   H     H_    0.661168 0.912768 0.380988 0.061159
H52   H     H_    0.450640 0.865106 0.429042 0.083356
H53   H     H_    0.185417 0.965971 0.447265 0.103780
H54   H     H_    0.126022 0.105678 0.413455 0.057082
H55   H     H_    0.111467 0.849486 0.669299 0.206434
H56   H     H_    0.835556 0.847388 0.648152 0.102542
H57   H     H_    0.042786 0.942912 0.645640 0.160973
H58   H     H_    0.751926 0.369801 0.321726 0.149911
H59   H     H_    0.657650 0.398841 0.377549 0.214241
H60   H     H_    0.993789 0.107541 0.673234 0.102222
H61   H     H_    0.128591 0.084947 0.754369 0.063417
H62   H     H_    0.963079 0.094800 0.829819 0.063503
H63   H     H_    0.661200 0.126854 0.823822 0.061378
H64   H     H_    0.524763 0.148995 0.743062 0.056966
H65   H     H_    0.775040 0.788092 0.937866 0.065756
H66   H     H_    0.496165 0.868540 0.955106 0.062929
H67   H     H_    0.867924 0.874953 0.587166 0.039566
H68   H     H_    0.274916 0.785185 0.972872 0.063210
H69   H     H_    0.332841 0.621368 0.972550 0.075690
H70   H     H_    0.608168 0.537634 0.951831 0.076814
H71   H     H_    0.120399 0.000620 0.562998 0.181129
H72   H     H_    0.222065 0.029961 0.617838 0.171109
H73   H     H_    0.864710 0.650223 0.507164 0.186402
H74   H     H_    0.728127 0.651509 0.457330 0.198320
H75   H     H_    0.900524 0.252367 0.386825 0.095045
H76   H     H_    0.714573 0.083412 0.623317 0.051511
N1    N     N_R   0.950014 0.514354 0.205056 -0.422334
N2    N     N_R   0.258138 0.503976 0.795457 -0.420856
N3    N     N_3   0.074825 0.873524 0.635698 -0.495103
N4    N     N_3   0.764801 0.363795 0.359842 -0.515090
N5    N     N_3   0.201817 0.042430 0.581088 -0.457336
N6    N     N_3   0.820850 0.681011 0.476755 -0.486992
O1    O     O_2   0.906490 0.548660 0.619040 -0.476693
O2    O     O_2   0.204278 0.819922 0.473326 -0.498040
O3    O     O_3   0.067958 0.812000 0.384878 -0.610787
O4    O     O_3   0.138490 0.548590 0.558860 -0.496149
O5    O     O_3   0.572560 0.389970 0.472910 -0.480569
O6    O     O_2   0.345680 0.723560 0.528460 -0.449563
O7    O     O_3   0.530840 0.752903 0.610770 -0.650117
O8    O     O_2   0.496283 0.499811 0.329609 -0.447165
O9    O     O_3   0.389820 0.665557 0.319587 -0.555459
O10   O     O_2   0.215501 0.454443 0.214742 -0.575562
O11   O     O_2   0.459039 0.389239 0.805099 -0.603325
O12   O     O_3   0.650174 0.254412 0.392028 -0.670471
O13   O     O_2   0.687249 0.562167 0.182774 -0.595563
O14   O     O_2   0.052203 0.619367 0.794145 -0.606550
O15   O     O_3   0.686290 0.382320 0.585720 -0.483272
O16   O     O_2   0.838998 0.423022 0.672978 -0.500643
O17   O     O_3   0.044903 0.692411 0.632370 -0.634737
O18   O     O_3   0.642490 0.303280 0.671918 -0.600126
O19   O     O_2   0.844020 0.276410 0.471510 -0.480851
O20   O     O_3   0.101490 0.335510 0.560360 -0.482745
O21   O     O_2   0.003316 0.177964 0.532664 -0.479803
O22   O     O_3   0.126004 0.211127 0.624153 -0.595565
O23   O     O_2   0.283210 0.451320 0.380930 -0.446712
O24   O     O_3   0.051220 0.451340 0.441130 -0.480643
O25   O     O_3   0.503420 0.617610 0.414270 -0.483558
O26   O     O_3   0.137389 0.308825 0.367076 -0.660692
O27   O     O_3   0.617160 0.609950 0.527080 -0.490986
O28   O     O_3   0.088220 0.664410 0.439630 -0.447830
P1    P     P_3+3 0.071960 0.575810 0.612130 0.984619
P2    P     P_3+3 0.664360 0.290070 0.457280 0.966235
P3    P     P_3+3 0.144754 0.221844 0.561345 0.973224
P4    P     P_3+3 0.117760 0.424110 0.387870 1.014901
P5    P     P_3+3 0.057690 0.783164 0.444398 0.972201
P6    P     P_3+3 0.669815 0.403267 0.651097 0.977532
P7    P     P_3+3 0.530663 0.723691 0.545412 0.935246
P8    P     P_3+3 0.536785 0.595542 0.349206 1.014645

loop_
_geom_bond_atom_site_label_1
_geom_bond_atom_site_label_2
_ccdc_geom_bond_type
C53   C54   A    
C23   H7    S    
C8    N1    S    
C45   H15   S    
C52   H34   S    
C71   C72   A    
O8    P8    D    
Ba1   P2    S    
C19   C24   A    
H71   N5    S    
C79   C80   A    
Ba1   O15   S    
C81   H68   S    
C75   C76   A    
H73   N6    S    
H74   N6    S    
C63   H3    S    
C52   H45   S    
C78   H21   S    
Ba1   O5    S    
C24   C25   A    
C35   C36   A    
O25   P8    S    
Ba2   P4    S    
C17   C19   A    
C40   H23   S    
Ba2   O24   S    
C12   H1    S    
C32   C33   S    
C35   C38   A    
C44   P3    S    
C40   H12   S    
Ba2   O5    S    
C36   C37   A    
C62   O12   S    
C82   H69   S    
C15   H40   S    
C55   C57   A    
O27   P7    S    
C52   C61   S    
C41   C77   S    
C84   O10   D    
C54   C55   A    
O18   P6    S    
C16   H47   S    
Ba1   Ba2   S    
Ba1   O1    S    
C47   C48   A    
C26   O14   D    
C22   C27   A    
H57   N3    S    
O2    P5    D    
C62   N4    S    
C17   C35   A    
C1    H76   S    
C67   O9    S    
C9    C13   A    
C25   C42   A    
O26   P4    S    
C29   C30   S    
C6    C7    D    
C28   H48   S    
C52   O17   S    
O22   P3    S    
C21   C22   A    
C68   C69   A    
C56   H16   S    
C2    O13   D    
C7    C8    S    
C29   H28   S    
C50   C53   A    
C37   C43   A    
O21   P3    D    
C7    H26   S    
C20   H30   S    
C64   C65   A    
C23   H8    S    
C6    C14   D    
C53   C58   A    
C4    H24   S    
C27   N2    Am   
C66   H51   S    
C15   C31   D    
C56   H17   S    
H72   N5    S    
C46   C58   A    
H59   N4    S    
Ba1   O19   S    
C43   H38   S    
C51   C57   A    
C63   H4    S    
C4    C16   S    
C64   C70   A    
C57   H46   S    
O9    P8    S    
O16   P6    D    
C72   C73   A    
O19   P2    D    
C49   C50   A    
C58   H42   S    
C17   C20   A    
O23   P4    D    
C61   H67   S    
C47   N6    S    
C75   H63   S    
C3    C5    S    
C18   C37   A    
C67   H19   S    
C69   H53   S    
C44   C59   A    
O20   P3    S    
C73   H61   S    
C79   H65   S    
C49   H43   S    
C39   H33   S    
C45   H14   S    
C65   C66   A    
H58   N4    S    
C1    H6    S    
C83   H70   S    
O3    P5    S    
C9    C36   A    
C73   C74   A    
C5    P8    S    
C51   C60   A    
C23   O7    S    
C81   C82   A    
C31   P1    S    
C71   C76   A    
C4    O22   S    
C31   C32   D    
C2    N1    Am   
O4    P1    S    
C59   H41   S    
C60   P7    S    
C82   C83   A    
C48   P5    S    
C13   C39   A    
C34   H11   S    
C1    C12   S    
C55   N5    S    
C5    C14   S    
C68   H52   S    
C41   C42   A    
C29   C33   D    
C6    P4    S    
C56   H18   S    
C16   H13   S    
C70   H54   S    
C44   C54   A    
C11   C38   A    
C77   C83   A    
C18   C41   A    
C50   C51   A    
C76   H64   S    
C63   H2    S    
O1    P1    D    
C14   H39   S    
Ba1   O20   S    
C15   C30   S    
C26   N2    Am   
C39   C43   A    
C47   C60   A    
Ba1   O27   S    
O5    P2    S    
O15   P6    S    
H55   N3    S    
C72   H60   S    
Ba1   P1    S    
C22   C24   A    
C62   H75   S    
C45   O3    S    
C67   H20   S    
Ba2   O27   S    
C78   H22   S    
Ba1   O4    S    
C77   C79   A    
C33   N2    S    
C16   H44   S    
C10   C84   A    
C3    H32   S    
Ba2   O25   S    
O17   P1    S    
C62   C63   S    
C2    C13   A    
C65   H50   S    
O7    P7    S    
C3    C8    D    
Ba2   O6    S    
C45   C56   S    
C74   C75   A    
C34   H9    S    
C46   C59   A    
C28   O26   S    
C12   O18   S    
C78   H25   S    
C42   H36   S    
O6    P7    D    
C61   H56   S    
C38   H31   S    
Ba2   O28   S    
O24   P4    S    
C30   P6    S    
C1    C71   S    
C80   H66   S    
C12   H5    S    
O12   P2    S    
C23   C34   S    
C21   H29   S    
C10   C11   A    
Ba1   O24   S    
C61   N3    S    
C69   C70   A    
C18   C19   A    
C74   H62   S    
C66   C68   A    
C28   H49   S    
C27   O11   D    
C46   P2    S    
C25   C26   A    
C40   C64   S    
C32   H37   S    
C48   C49   A    
C20   C21   A    
C28   C40   S    
C67   C78   S    
C84   N1    Am   
C4    H35   S    
C80   C81   A    
O28   P5    S    
Ba2   O23   S    
C11   H27   S    
C9    C10   A    
Ba2   O4    S    
C34   H10   S    
