data_mof_unit_pretest_1078.cif
_audit_creation_date              2012-12-10T17:11:26-0500
_audit_creation_method            fapswitch 2.2
_symmetry_space_group_name_H-M    P1
_symmetry_Int_Tables_number       1
_space_group_crystal_system       triclinic
_cell_length_a                    14.960934
_cell_length_b                    13.053082
_cell_length_c                    11.778068
_cell_angle_alpha                 99.798243
_cell_angle_beta                  93.96568
_cell_angle_gamma                 90.143642
_cell_volume                      2260.87874092

loop_
_atom_site_label
_atom_site_type_symbol
_atom_type_description
_atom_site_fract_x
_atom_site_fract_y
_atom_site_fract_z
_atom_type_partial_charge
C1    C     C_R   0.502833 0.299972 0.479220 0.879599
C2    C     C_R   0.535574 0.872703 0.632476 -0.306936
C3    C     C_R   0.540818 0.136126 0.552692 0.220123
C4    C     C_R   0.461137 0.863421 0.440924 0.221614
C5    C     C_R   0.519267 0.030062 0.550357 -0.017587
C6    C     C_R   0.467741 0.973202 0.452701 -0.025175
C7    C     C_R   0.391354 0.446681 0.027435 0.155888
C8    C     C_R   0.614166 0.539083 0.968803 0.152996
C9    C     C_R   0.403329 0.447042 0.148465 0.371501
C10   C     C_R   0.598033 0.548117 0.850023 0.365337
C11   C     C_R   0.556211 0.486623 0.145324 0.294086
C12   C     C_R   0.498461 0.700530 0.520734 0.857415
C13   C     C_R   0.445001 0.508970 0.855100 0.281651
C14   C     C_R   0.544027 0.505347 0.028885 -0.145826
C15   C     C_R   0.458928 0.488882 0.970468 -0.125584
C16   C     C_R   0.329073 0.497837 0.500370 0.856725
C17   C     C_R   0.670858 0.503049 0.500276 0.851118
C18   C     C_R   0.812984 0.591272 0.472752 0.130746
C19   C     C_R   0.188306 0.412550 0.538360 0.115735
C20   C     C_R   0.767501 0.506710 0.502521 -0.089752
C21   C     C_R   0.232538 0.496060 0.504122 -0.094149
C22   C     C_R   0.813288 0.427770 0.545592 -0.268120
C23   C     C_R   0.047164 0.343073 0.600568 0.238058
C24   C     C_R   0.187120 0.584171 0.484447 -0.251190
C25   C     C_R   0.906635 0.426515 0.553799 0.028500
C26   C     C_R   0.095233 0.591695 0.494878 0.080811
C27   C     C_R   0.954238 0.510668 0.524165 -0.054054
C28   C     C_R   0.048265 0.507546 0.525761 -0.055477
C29   C     C_R   0.907558 0.597884 0.492655 0.015463
C30   C     C_R   0.095276 0.419749 0.555731 -0.023243
C31   C     C_R   0.952996 0.345386 0.596557 0.218078
C32   C     C_R   0.050630 0.683628 0.478411 0.183797
C33   C     C_3   0.342803 0.288901 0.897050 -0.680944
C34   C     C_R   0.956900 0.688954 0.484293 0.206136
C35   C     C_3   0.778304 0.525192 0.997698 -0.651819
C36   C     C_3   0.883172 0.295287 0.758810 -0.676701
C37   C     C_3   0.137375 0.839971 0.558461 -0.710667
C38   C     C_3   0.077412 0.162120 0.631830 -0.583541
C39   C     C_3   0.888783 0.827340 0.612322 -0.656430
C40   C     C_3   0.335993 0.759262 0.332885 -0.611757
C41   C     C_3   0.610823 0.251745 0.726529 -0.559663
C42   C     C_3   0.269295 0.001948 0.309229 -0.655357
C43   C     C_3   0.511772 0.063009 0.832162 -0.694330
C44   C     C_3   0.665236 0.714479 0.836313 -0.647979
C45   C     C_R   0.497193 0.813978 0.531336 -0.116427
C46   C     C_3   0.248015 0.432296 0.198572 -0.618188
C47   C     C_R   0.497794 0.187679 0.468902 -0.108219
C48   C     C_R   0.425828 0.028192 0.369874 0.267034
C49   C     C_R   0.547221 0.979212 0.643381 0.270972
C50   C     C_R   0.442052 0.133848 0.379017 -0.274908
Cu1   Cu    Cu3+1 0.506660 0.507730 0.615930 0.981412
Cu2   Cu    Cu3+1 0.493340 0.492270 0.384070 0.999186
H1    H     H_    0.774149 0.366280 0.570171 0.155531
H2    H     H_    0.814055 0.501246 0.074520 0.253799
H3    H     H_    0.823170 0.579013 0.964009 0.223002
H4    H     H_    0.764518 0.454612 0.931262 0.213822
H5    H     H_    0.855354 0.228994 0.585407 0.244681
H6    H     H_    0.852452 0.227209 0.787179 0.223607
H7    H     H_    0.834430 0.359624 0.766635 0.209200
H8    H     H_    0.944228 0.319778 0.816315 0.249627
H9    H     H_    0.073763 0.807737 0.392307 0.247705
H10   H     H_    0.083238 0.886035 0.601445 0.231265
H11   H     H_    0.186093 0.894641 0.533088 0.221169
H12   H     H_    0.224848 0.647323 0.461510 0.166205
H13   H     H_    0.172896 0.795716 0.620171 0.253849
H14   H     H_    0.146220 0.299932 0.721934 0.268827
H15   H     H_    0.142663 0.122329 0.623581 0.224908
H16   H     H_    0.037456 0.143063 0.547632 0.230611
H17   H     H_    0.041961 0.131771 0.699174 0.229223
H18   H     H_    0.942785 0.843810 0.458492 0.260584
H19   H     H_    0.854108 0.902542 0.612938 0.225599
H20   H     H_    0.948831 0.839811 0.674141 0.213093
H21   H     H_    0.842100 0.772342 0.641274 0.238074
H22   H     H_    0.446998 0.817981 0.259157 0.270239
H23   H     H_    0.558526 0.835611 0.704016 0.174536
H24   H     H_    0.293376 0.783711 0.261693 0.233237
H25   H     H_    0.304965 0.785753 0.415641 0.215345
H26   H     H_    0.338174 0.673236 0.316124 0.233277
H27   H     H_    0.674586 0.134893 0.617482 0.250024
H28   H     H_    0.649754 0.222288 0.797697 0.218261
H29   H     H_    0.539820 0.259918 0.748238 0.241064
H30   H     H_    0.639387 0.329253 0.721582 0.219476
H31   H     H_    0.373073 0.996094 0.201466 0.245255
H32   H     H_    0.223236 0.955197 0.242002 0.217942
H33   H     H_    0.254389 0.085532 0.311098 0.241105
H34   H     H_    0.407484 0.175110 0.316856 0.175856
H35   H     H_    0.257026 0.980498 0.394142 0.243315
H36   H     H_    0.634058 0.999796 0.789455 0.245876
H37   H     H_    0.541317 0.113799 0.911192 0.230585
H38   H     H_    0.482898 0.992143 0.857027 0.227893
H39   H     H_    0.457528 0.106179 0.792407 0.241137
H40   H     H_    0.723916 0.569790 0.792776 0.246894
H41   H     H_    0.708344 0.734637 0.917690 0.232750
H42   H     H_    0.597085 0.745409 0.850888 0.225839
H43   H     H_    0.694450 0.751888 0.769218 0.210553
H44   H     H_    0.342004 0.313716 0.179635 0.241575
H45   H     H_    0.273176 0.428275 0.919366 0.282504
H46   H     H_    0.210789 0.403860 0.114427 0.226298
H47   H     H_    0.248041 0.518661 0.216667 0.216961
H48   H     H_    0.211644 0.403001 0.265792 0.230480
H49   H     H_    0.281008 0.244033 0.861645 0.235967
H50   H     H_    0.382325 0.242838 0.953405 0.223993
H51   H     H_    0.382333 0.301067 0.823930 0.243692
H52   H     H_    0.694356 0.607816 0.116609 0.294826
I1    I     I_    0.735774 0.698411 0.386416 -0.394589
I2    I     I_    0.264124 0.272822 0.536188 -0.488024
I3    I     I_    0.328894 0.599597 0.828812 -0.406113
I4    I     I_    0.666099 0.387522 0.173288 -0.391021
N1    N     N_R   0.516670 0.519360 0.790130 -0.230290
N2    N     N_2   0.619677 0.182571 0.617610 -0.439449
N3    N     N_2   0.361139 0.981031 0.282326 -0.430599
N4    N     N_2   0.580556 0.035024 0.752349 -0.422170
N5    N     N_2   0.661690 0.603075 0.798402 -0.362712
N6    N     N_2   0.338886 0.393521 0.200952 -0.364656
N7    N     N_R   0.483330 0.480640 0.209870 -0.228533
N8    N     N_2   0.318762 0.387646 0.962848 -0.434124
N9    N     N_2   0.696453 0.578351 0.029932 -0.417245
N10   N     N_2   0.906158 0.266832 0.640406 -0.420424
N11   N     N_2   0.101020 0.770435 0.456661 -0.451172
N12   N     N_2   0.091820 0.273426 0.666029 -0.408588
N13   N     N_2   0.914349 0.787650 0.496727 -0.394677
N14   N     N_2   0.425965 0.801312 0.335616 -0.387472
O1    O     O_R   0.504720 0.354460 0.582000 -0.573356
O2    O     O_R   0.495280 0.645540 0.418000 -0.546683
O3    O     O_R   0.493480 0.341410 0.386200 -0.574500
O4    O     O_R   0.506520 0.658590 0.613800 -0.564912
O5    O     O_R   0.375880 0.506510 0.597910 -0.539305
O6    O     O_R   0.624120 0.493490 0.402090 -0.536311
O7    O     O_R   0.364640 0.493450 0.402110 -0.567404
O8    O     O_R   0.635360 0.506550 0.597890 -0.586765

loop_
_geom_bond_atom_site_label_1
_geom_bond_atom_site_label_2
_ccdc_geom_bond_type
C25   C31   A    
C46   H47   S    
C26   C32   A    
C16   C21   S    
C27   C29   A    
Cu1   O1    S    
C13   I3    S    
C36   H7    S    
H44   N6    S    
C41   H28   S    
C37   H10   S    
Cu2   O6    S    
C43   H37   S    
C6    C48   A    
C33   H49   S    
C9    N6    S    
C19   C21   A    
C1    O3    A    
C36   H6    S    
C5    C6    A    
C11   C14   A    
H9    N11   S    
C38   H16   S    
C3    N2    S    
C17   C20   S    
C10   N1    A    
C3    C47   A    
C13   N1    A    
C44   H41   S    
C22   C25   A    
C37   H13   S    
C39   H20   S    
C47   C50   A    
C36   N10   S    
H40   N5    S    
C18   C20   A    
C38   N12   S    
C48   C50   A    
C46   H46   S    
C38   H17   S    
Cu1   N1    S    
H14   N12   S    
C35   H2    S    
C5    C49   A    
C37   H11   S    
Cu1   O8    S    
C8    N9    S    
C22   H1    S    
C4    C45   A    
C2    C45   A    
C43   H38   S    
C46   N6    S    
C35   H3    S    
C33   H50   S    
C9    N7    A    
C23   C30   A    
C42   H32   S    
C4    C6    A    
C23   N12   S    
C18   C29   A    
C1    C47   S    
C3    C5    A    
C29   C34   A    
C43   H39   S    
C40   H24   S    
C32   C34   A    
C7    N8    S    
C42   N3    S    
C1    O1    A    
C31   N10   S    
C2    C49   A    
C37   N11   S    
C41   H29   S    
C14   C15   A    
C4    N14   S    
C42   H33   S    
H45   N8    S    
C16   O7    A    
C10   N5    S    
C49   N4    S    
C8    C10   A    
H22   N14   S    
C20   C22   A    
C44   N5    S    
C34   N13   S    
C41   N2    S    
C13   C15   A    
C40   H26   S    
C35   N9    S    
C43   N4    S    
Cu2   O7    S    
C32   N11   S    
C11   I4    S    
C11   N7    A    
H52   N9    S    
Cu2   N7    S    
C7    C9    A    
C46   H48   S    
C33   N8    S    
C8    C14   A    
H27   N2    S    
C17   O8    A    
C33   H51   S    
Cu1   O4    S    
C24   C26   A    
C12   C45   S    
C36   H8    S    
C35   H4    S    
Cu2   O3    S    
C17   O6    A    
C25   C27   A    
C40   N14   S    
C26   C28   A    
C39   N13   S    
Cu1   O5    S    
C28   C30   A    
C18   I1    S    
Cu1   Cu2   S    
C44   H43   S    
Cu2   O2    S    
H18   N13   S    
C41   H30   S    
C7    C15   A    
H31   N3    S    
C39   H21   S    
C16   O5    A    
C44   H42   S    
C50   H34   S    
H36   N4    S    
C19   I2    S    
C48   N3    S    
C12   O4    A    
C38   H15   S    
C24   H12   S    
C21   C24   A    
C27   C28   A    
C39   H19   S    
C40   H25   S    
C42   H35   S    
C19   C30   A    
C12   O2    A    
C2    H23   S    
C23   C31   A    
H5    N10   S    
