data_mof_unit_pretest_478.cif
_audit_creation_date              2012-12-10T17:08:45-0500
_audit_creation_method            fapswitch 2.2
_symmetry_space_group_name_H-M    P1
_symmetry_Int_Tables_number       1
_space_group_crystal_system       triclinic
_cell_length_a                    27.829434
_cell_length_b                    10.973945
_cell_length_c                    9.840088
_cell_angle_alpha                 110.091292
_cell_angle_beta                  99.295624
_cell_angle_gamma                 90.233343
_cell_volume                      2779.45677914

loop_
_atom_site_label
_atom_site_type_symbol
_atom_type_description
_atom_site_fract_x
_atom_site_fract_y
_atom_site_fract_z
_atom_type_partial_charge
C1    C     C_R   0.499262 0.254487 0.443078 0.862182
C2    C     C_R   0.505781 0.745690 0.557213 0.865240
C3    C     C_R   0.101901 0.498964 0.501088 -0.044235
C4    C     C_R   0.897963 0.500504 0.498786 -0.044132
C5    C     C_R   0.122709 0.385833 0.420595 -0.019500
C6    C     C_R   0.876634 0.616237 0.569639 -0.020097
C7    C     C_R   0.092748 0.273754 0.339541 -0.146420
C8    C     C_R   0.906007 0.731173 0.639845 -0.146689
C9    C     C_R   0.132395 0.611751 0.582060 -0.021663
C10   C     C_R   0.867989 0.385148 0.427445 -0.021856
C11   C     C_R   0.354563 0.499218 0.500561 -0.041206
C12   C     C_R   0.645415 0.500699 0.499399 -0.037566
C13   C     C_R   0.969821 0.382925 0.424438 0.041339
C14   C     C_R   0.030273 0.615374 0.579721 0.041395
C15   C     C_R   0.978926 0.616913 0.574819 0.042619
C16   C     C_R   0.020706 0.383660 0.420804 0.042682
C17   C     C_R   0.949121 0.500115 0.499337 0.067925
C18   C     C_R   0.050742 0.499329 0.500548 0.067769
C19   C     C_R   0.938648 0.268403 0.356259 -0.204697
C20   C     C_R   0.062216 0.726102 0.662153 -0.204301
C21   C     C_R   0.888839 0.269864 0.357626 -0.143282
C22   C     C_R   0.112131 0.724134 0.662751 -0.142955
C23   C     C_R   0.407480 0.499775 0.500155 0.803067
C24   C     C_R   0.592516 0.500213 0.499839 0.785076
C25   C     C_R   0.042831 0.272489 0.339111 -0.205188
C26   C     C_R   0.956032 0.731879 0.642261 -0.205923
C27   C     C_2   0.503573 0.116196 0.418023 -0.353251
C28   C     C_2   0.512553 0.884606 0.583974 -0.353453
C29   C     C_2   0.529531 0.071760 0.518376 0.174110
C30   C     C_2   0.528137 0.931201 0.486834 0.196184
C31   C     C_2   0.505080 0.505667 0.079661 0.006642
C32   C     C_2   0.496465 0.489452 0.918909 0.008387
C33   C     C_R   0.173279 0.387518 0.422573 0.533689
C34   C     C_R   0.826072 0.614522 0.567786 0.533562
C35   C     C_R   0.182765 0.609503 0.580683 0.534997
C36   C     C_R   0.817612 0.387527 0.428670 0.534911
C37   C     C_R   0.286508 0.512750 0.630576 -0.101883
C38   C     C_R   0.713384 0.481980 0.368094 -0.103046
C39   C     C_R   0.336609 0.513262 0.630394 -0.218388
C40   C     C_R   0.663290 0.481778 0.368356 -0.220541
C41   C     C_R   0.321465 0.484495 0.371054 -0.215332
C42   C     C_R   0.678580 0.520188 0.630059 -0.218495
C43   C     C_R   0.271395 0.484215 0.371606 -0.100237
C44   C     C_R   0.728650 0.520551 0.629502 -0.101180
C45   C     C_R   0.253712 0.498358 0.501284 0.353833
C46   C     C_R   0.746220 0.501330 0.498588 0.357124
Cu1   Cu    Cu3+1 0.508480 0.521810 0.644910 0.941109
Cu2   Cu    Cu3+1 0.491520 0.478190 0.355090 0.945065
H1    H     H_    0.334201 0.473530 0.269397 0.160174
H2    H     H_    0.665904 0.535040 0.732668 0.159166
H3    H     H_    0.504405 0.951713 0.686882 0.133814
H4    H     H_    0.484665 0.047737 0.314093 0.138508
H5    H     H_    0.467966 0.420015 0.844079 0.138275
H6    H     H_    0.534803 0.571228 0.153161 0.138703
H7    H     H_    0.246270 0.473482 0.271350 0.144503
H8    H     H_    0.753859 0.535246 0.730688 0.142493
H9    H     H_    0.107764 0.185875 0.275286 0.186432
H10   H     H_    0.890417 0.821862 0.693539 0.187169
H11   H     H_    0.638639 0.466832 0.266074 0.155189
H12   H     H_    0.361202 0.524388 0.731743 0.155920
H13   H     H_    0.726755 0.467439 0.266588 0.140573
H14   H     H_    0.273102 0.523235 0.731120 0.142629
H15   H     H_    0.866676 0.179463 0.303513 0.189351
H16   H     H_    0.134865 0.811737 0.727423 0.189523
H17   H     H_    0.951505 0.174651 0.302306 0.140774
H18   H     H_    0.050102 0.816172 0.729880 0.140237
H19   H     H_    0.022615 0.182600 0.271159 0.139198
H20   H     H_    0.975508 0.825402 0.696442 0.139726
N1    N     N_R   0.202155 0.498404 0.501682 -0.467646
N2    N     N_R   0.797739 0.501165 0.498169 -0.468403
N3    N     N_2   0.478780 0.445430 0.137360 -0.136554
N4    N     N_2   0.521220 0.554570 0.862640 -0.137266
O1    O     O_R   0.504520 0.332330 0.577400 -0.573758
O2    O     O_R   0.495480 0.667670 0.422600 -0.565773
O3    O     O_R   0.490210 0.295500 0.332650 -0.571178
O4    O     O_R   0.509790 0.704500 0.667350 -0.572045
O5    O     O_R   0.437420 0.518430 0.622370 -0.584232
O6    O     O_R   0.562580 0.481570 0.377630 -0.590292
O7    O     O_R   0.423110 0.481600 0.377610 -0.577868
O8    O     O_R   0.576890 0.518400 0.622390 -0.583216
O9    O     O_2   0.193510 0.278924 0.347011 -0.538590
O10   O     O_2   0.805311 0.725358 0.634198 -0.537451
O11   O     O_2   0.788746 0.277008 0.361970 -0.536605
O12   O     O_2   0.212088 0.717832 0.656526 -0.537227
C47   C     C_3   0.561030 0.647157 0.952732 -0.539710
H21   H     H_    0.577743 0.690281 0.883447 0.230233
H22   H     H_    0.547265 0.727559 0.038165 0.170159
H23   H     H_    0.589775 0.598088 0.003183 0.163499
C48   C     C_3   0.438360 0.354879 0.047220 -0.532775
H24   H     H_    0.421068 0.312909 0.116453 0.229284
H25   H     H_    0.410289 0.405689 0.996837 0.163601
H26   H     H_    0.451523 0.273268 0.961158 0.163562
C49   C     C_3   0.544263 0.846663 0.346919 -0.829065
H27   H     H_    0.562672 0.906652 0.297225 0.221310
H28   H     H_    0.570809 0.777950 0.369995 0.228792
H29   H     H_    0.511981 0.793331 0.265773 0.234822
C50   C     C_3   0.560558 0.158258 0.660654 -0.778793
H30   H     H_    0.583921 0.099540 0.713624 0.217828
H31   H     H_    0.585203 0.226741 0.638964 0.236517
H32   H     H_    0.537052 0.212505 0.739361 0.233093

loop_
_geom_bond_atom_site_label_1
_geom_bond_atom_site_label_2
_ccdc_geom_bond_type
C49   H27   S    
C27   C29   D    
C8    C26   A    
C14   C18   A    
C25   H19   S    
C50   H30   S    
C32   N4    D    
C47   H21   S    
Cu2   O7    S    
C20   H18   S    
C19   C21   A    
Cu1   O4    S    
C30   C49   S    
C28   H3    S    
C9    C22   A    
C36   O11   S    
C3    C18   A    
Cu2   O6    S    
C12   C42   A    
C8    H10   S    
C24   O8    A    
C31   C32   S    
C36   N2    A    
C5    C33   A    
C19   H17   S    
C48   H25   S    
C34   N2    A    
C2    O2    A    
C33   N1    A    
C38   H13   S    
C31   N3    D    
C49   H28   S    
C40   H11   S    
C41   C43   A    
Cu2   O3    S    
C42   C44   A    
Cu1   O8    S    
C41   H1    S    
C50   H31   S    
C44   C46   A    
N4    C47   S    
C47   H22   S    
C10   C21   A    
C38   C46   A    
C13   C19   A    
C45   N1    S    
C1    O3    A    
C14   C20   A    
Cu1   O1    S    
C4    C6    A    
C5    C7    A    
C15   C26   A    
C6    C8    A    
C6    C34   A    
C12   C40   A    
C29   C30   S    
C3    C9    A    
Cu2   O2    S    
C44   H8    S    
Cu1   Cu2   S    
N3    C48   S    
C23   O5    A    
C48   H26   S    
C11   C39   A    
C43   C45   A    
C42   H2    S    
C4    C17   A    
C43   H7    S    
C20   C22   A    
C49   H29   S    
Cu1   O5    S    
Cu2   N3    S    
C37   C45   A    
C32   H5    S    
C50   H32   S    
C2    O4    A    
C27   H4    S    
C1    C27   S    
C47   H23   S    
C24   O6    A    
C16   C25   A    
C15   C17   A    
C3    C5    A    
C10   C36   A    
C35   O12   S    
C29   C50   S    
C12   C24   S    
C7    C25   A    
C13   C17   A    
C26   H20   S    
C46   N2    S    
C28   C30   D    
C1    O1    A    
C37   C39   A    
C38   C40   A    
C33   O9    S    
C39   H12   S    
C11   C23   S    
C11   C41   A    
C31   H6    S    
Cu1   N4    S    
C21   H15   S    
C22   H16   S    
C35   N1    A    
C16   C18   A    
C13   C16   A    
C9    C35   A    
C37   H14   S    
C14   C15   A    
C2    C28   S    
C34   O10   S    
C23   O7    A    
C48   H24   S    
C4    C10   A    
C7    H9    S    
