data_mof_unit_pretest_652.cif
_audit_creation_date              2012-12-11T14:17:34-0500
_audit_creation_method            fapswitch 2.2
_symmetry_space_group_name_H-M    P1
_symmetry_Int_Tables_number       1
_space_group_crystal_system       triclinic
_cell_length_a                    7.023507
_cell_length_b                    13.92805
_cell_length_c                    20.317938
_cell_angle_alpha                 101.964829
_cell_angle_beta                  91.810682
_cell_angle_gamma                 90.066302
_cell_volume                      1943.36575407

loop_
_atom_site_label
_atom_site_type_symbol
_atom_type_description
_atom_site_fract_x
_atom_site_fract_y
_atom_site_fract_z
_atom_type_partial_charge
O1    O     O_R   0.506860 0.599390 0.449240 -0.517422
O2    O     O_R   0.180220 0.594600 0.586780 -0.562572
O3    O     O_R   0.004500 0.400610 0.550760 -0.538441
C1    C     C_R   0.350878 0.620899 0.611781 0.659105
O4    O     O_R   0.177490 0.611290 0.451970 -0.553998
O5    O     O_R   0.001750 0.417420 0.414990 -0.557250
C2    C     C_R   0.344735 0.641430 0.438543 0.752788
O6    O     O_R   0.509610 0.582580 0.585010 -0.546084
O7    O     O_3   0.337420 0.436370 0.488020 -0.361387
V1    V     V_3+5 0.064680 0.511800 0.502220 1.443375
O8    O     O_R   0.671710 0.405400 0.413220 -0.507734
C3    C     C_R   0.837904 0.382094 0.387543 0.605085
O9    O     O_R   0.674440 0.388710 0.548030 -0.531180
C4    C     C_R   0.844731 0.359412 0.562400 0.774981
V2    V     V_3+5 0.564010 0.488200 0.497780 1.539482
O10   O     O_3   0.841140 0.563630 0.511980 -0.383332
C5    C     C_R   0.938934 0.109447 0.605984 -0.196868
H1    H     H_    0.990895 0.037902 0.582063 0.187170
C6    C     C_R   0.856132 0.276741 0.598402 -0.264773
C7    C     C_R   0.873869 0.299848 0.920095 0.447612
C8    C     C_R   0.885569 0.372105 0.883080 0.446975
C9    C     C_R   0.873403 0.348029 0.812895 0.321082
C10   C     C_R   0.841995 0.249844 0.777848 -0.066334
C11   C     C_R   0.850138 0.175046 0.815805 -0.192351
C12   C     C_R   0.838723 0.223880 0.705919 -0.045703
C13   C     C_R   0.891023 0.128221 0.674282 -0.137403
C14   C     C_R   0.899039 0.054315 0.712002 0.660389
C15   C     C_R   0.869149 0.076859 0.781357 -0.187274
C16   C     C_R   0.794776 0.291394 0.664507 0.567524
C17   C     C_R   0.929777 0.184219 0.568712 0.329571
C18   C     C_R   0.857099 0.201613 0.887422 -0.267069
H2    H     H_    0.875825 0.017860 0.808600 0.173221
C19   C     C_2   0.990712 0.288914 0.284739 -0.217101
C20   C     C_2   0.832900 0.314876 0.320223 0.458291
H3    H     H_    0.127969 0.316142 0.306945 0.108654
C21   C     C_2   0.983660 0.239726 0.211519 0.289324
C22   C     C_2   0.875501 0.159261 0.187045 0.465427
C23   C     C_2   0.219117 0.824387 0.766726 0.700840
C24   C     C_2   0.367155 0.852112 0.810406 -0.358606
H4    H     H_    0.507200 0.848705 0.789694 0.103633
C25   C     C_2   0.249545 0.771385 0.694928 -0.293739
C26   C     C_2   0.361303 0.690350 0.679655 0.180541
H5    H     H_    0.157841 0.790416 0.655627 0.162629
C27   C     C_R   0.236195 0.885091 0.391089 -0.131100
H6    H     H_    0.218315 0.829001 0.481774 0.148250
H7    H     H_    0.186015 0.956799 0.414962 0.196459
C28   C     C_R   0.342462 0.723065 0.402008 -0.159194
C29   C     C_R   0.421467 0.696514 0.081027 0.259441
C30   C     C_R   0.416114 0.623517 0.119280 0.442567
C31   C     C_R   0.368089 0.645456 0.186026 0.393258
C32   C     C_R   0.353296 0.743776 0.220637 -0.095040
C33   C     C_R   0.336388 0.817480 0.181595 -0.165434
C34   C     C_R   0.340435 0.769437 0.292028 -0.061297
C35   C     C_R   0.272947 0.863519 0.321904 -0.080687
C36   C     C_R   0.246018 0.934585 0.282482 0.624989
C37   C     C_R   0.284324 0.912847 0.213881 -0.143946
C38   C     C_R   0.395544 0.705250 0.335128 0.619792
C39   C     C_R   0.260196 0.813372 0.429802 -0.288259
C40   C     C_R   0.370863 0.793073 0.111197 -0.207119
H8    H     H_    0.267414 0.970712 0.185928 0.132435
O11   O     O_R   0.203230 0.917310 0.915020 -0.513626
O12   O     O_R   0.535500 0.888690 0.048040 -0.522490
O13   O     O_R   0.711080 0.082610 0.085000 -0.537541
C41   C     C_R   0.370078 0.867756 0.068990 0.800860
O14   O     O_R   0.532630 0.905370 0.913230 -0.544264
O15   O     O_R   0.708190 0.099410 0.949230 -0.553000
C42   C     C_R   0.363824 0.895950 0.883815 0.767977
O16   O     O_R   0.206120 0.900510 0.050790 -0.552810
O17   O     O_3   0.375360 0.063570 0.011990 -0.404713
V3    V     V_3+5 0.648170 0.988200 0.997780 1.512827
O18   O     O_R   0.038240 0.111390 0.951940 -0.538170
C43   C     C_R   0.868575 0.128995 0.929609 0.829857
O19   O     O_R   0.041120 0.094710 0.086750 -0.553029
C44   C     C_R   0.875611 0.109968 0.114834 0.674881
V4    V     V_3+5 0.148810 0.011930 0.002180 1.487027
O20   O     O_3   0.871750 0.936430 0.988010 -0.370159
O21   O     O_3   0.004472 0.167088 0.505171 -0.563831
C45   C     C_3   0.856619 0.146820 0.455180 0.119814
H9    H     H_    0.919442 0.154634 0.407028 0.195185
H10   H     H_    0.738678 0.200854 0.464243 0.089054
C46   C     C_3   0.777537 0.042006 0.447750 -0.367034
H11   H     H_    0.892957 0.991555 0.456544 0.204932
H12   H     H_    0.668690 0.041114 0.486172 0.191064
C47   C     C_3   0.687551 0.003980 0.377920 -0.665854
H13   H     H_    0.564778 0.050390 0.369096 0.271816
H14   H     H_    0.637700 0.927365 0.374106 0.212557
H15   H     H_    0.793660 0.004010 0.338521 0.282737
F1    F     F_    0.658226 0.288735 0.290987 -0.659673
O22   O     O_3   0.067241 0.285426 0.165237 -0.600290
C48   C     C_3   0.265348 0.294318 0.177359 0.062098
H16   H     H_    0.328043 0.227820 0.192052 0.171055
H17   H     H_    0.297772 0.360015 0.217672 0.188434
C49   C     C_3   0.354521 0.307079 0.112207 -0.272491
H18   H     H_    0.340823 0.237644 0.074216 0.209596
H19   H     H_    0.277259 0.364616 0.091947 0.257825
C50   C     C_3   0.563029 0.335951 0.123676 -0.631335
H20   H     H_    0.574099 0.410452 0.155496 0.284009
H21   H     H_    0.630231 0.335765 0.075115 0.272596
H22   H     H_    0.638814 0.284003 0.149177 0.216698
F2    F     F_    0.772643 0.116726 0.229100 -0.658596
F3    F     F_    0.038014 0.842257 0.787337 -0.696263
O23   O     O_3   0.450054 0.658765 0.732652 -0.586655
C51   C     C_3   0.644608 0.683185 0.735686 0.037860
H23   H     H_    0.685948 0.717382 0.788617 0.178600
H24   H     H_    0.682724 0.737702 0.704594 0.161786
C52   C     C_3   0.756790 0.589681 0.717352 -0.304083
H25   H     H_    0.771142 0.557044 0.761974 0.267156
H26   H     H_    0.686941 0.537308 0.675327 0.267524
C53   C     C_3   0.950480 0.611580 0.697359 -0.706885
H27   H     H_    0.935736 0.654222 0.657170 0.241038
H28   H     H_    0.026117 0.542198 0.679061 0.234257
H29   H     H_    0.026653 0.655119 0.741874 0.249891
F4    F     F_    0.186814 0.026296 0.310641 -0.695048
F5    F     F_    0.936084 0.960105 0.681831 -0.699577
F6    F     F_    0.505741 0.626499 0.313997 -0.697182
O24   O     O_3   0.484117 0.677390 0.015352 -0.561864
C54   C     C_3   0.387511 0.596366 0.974308 0.128201
H30   H     H_    0.350161 0.618549 0.926253 0.112563
H31   H     H_    0.248544 0.578970 0.994560 0.167760
C55   C     C_3   0.520303 0.506710 0.959884 -0.169239
H32   H     H_    0.595805 0.506922 0.913382 0.189347
H33   H     H_    0.635140 0.513284 0.999421 0.296370
C56   C     C_3   0.416255 0.407930 0.954011 -0.709009
H34   H     H_    0.292218 0.414364 0.987022 0.286181
H35   H     H_    0.514823 0.353532 0.968701 0.234927
H36   H     H_    0.367056 0.377080 0.901665 0.187366
O25   O     O_3   0.311968 0.568513 0.214124 -0.522168
C57   C     C_3   0.113682 0.553377 0.202899 0.122355
H37   H     H_    0.090646 0.482497 0.166823 0.189741
H38   H     H_    0.037676 0.610614 0.180860 0.085465
C58   C     C_3   0.024077 0.549320 0.269471 -0.360511
H39   H     H_    0.107756 0.500266 0.295953 0.210160
H40   H     H_    0.023092 0.623998 0.301990 0.199760
C59   C     C_3   0.821522 0.511184 0.257120 -0.665776
H41   H     H_    0.737276 0.557646 0.228852 0.279432
H42   H     H_    0.756289 0.510959 0.305925 0.273946
H43   H     H_    0.822887 0.435176 0.227469 0.227873
F7    F     F_    0.448023 0.528532 0.092269 -0.723967
F8    F     F_    0.686946 0.370252 0.687510 -0.722988
F9    F     F_    0.894825 0.325019 0.988220 -0.683194
O26   O     O_3   0.927866 0.418543 0.779173 -0.534635
C60   C     C_3   0.120776 0.405300 0.762744 0.125621
H44   H     H_    0.134420 0.406206 0.708645 0.132224
H45   H     H_    0.184106 0.334215 0.769846 0.091411
C61   C     C_3   0.232679 0.489354 0.805401 -0.369094
H46   H     H_    0.178836 0.560528 0.797531 0.233019
H47   H     H_    0.214908 0.488150 0.858686 0.241194
C62   C     C_3   0.439126 0.480612 0.788681 -0.697368
H48   H     H_    0.500746 0.412944 0.800960 0.242968
H49   H     H_    0.514793 0.546075 0.817912 0.235316
H50   H     H_    0.449624 0.478399 0.734261 0.300196
F10   F     F_    0.926832 0.465476 0.915433 -0.696191

loop_
_geom_bond_atom_site_label_1
_geom_bond_atom_site_label_2
_ccdc_geom_bond_type
C21   O22   S    
C22   C44   S    
C49   H18   S    
C25   H5    S    
O19   C44   A    
C62   H50   S    
C1    O6    A    
C58   C59   S    
C57   H37   S    
C61   C62   S    
C59   H43   S    
C46   H11   S    
C56   H34   S    
C38   F6    S    
C34   C35   A    
O11   V4    S    
O16   V4    S    
C13   C14   A    
C52   H26   S    
C29   C40   A    
C5    C13   A    
C41   O16   A    
C21   C22   D    
C62   H49   S    
C23   F3    S    
C53   H28   S    
O5    C3    A    
C23   C24   D    
C45   H10   S    
C56   H35   S    
C52   H25   S    
V2    O10   S    
C50   H22   S    
C19   C21   S    
O24   C54   S    
O12   V3    S    
C25   C26   D    
C8    F10   S    
O12   C41   A    
C46   H12   S    
C17   O21   S    
O8    V2    S    
O15   C43   A    
C27   H7    S    
O14   C42   A    
C50   H21   S    
C10   C11   A    
C47   H15   S    
O1    V2    S    
O7    V1    S    
C55   C56   S    
C29   O24   S    
C49   H19   S    
O9    C4    A    
C5    C17   A    
O19   V4    S    
C60   C61   S    
O17   V3    S    
O26   C60   S    
C26   O23   S    
C61   H47   S    
C55   H33   S    
C19   C20   D    
C12   C16   A    
C16   F8    S    
H6    C39   S    
C33   C37   A    
C32   C33   A    
C15   H2    S    
C47   H13   S    
C23   C25   S    
C53   H29   S    
C27   C39   A    
C24   H4    S    
O4    C2    A    
C34   C38   A    
C45   H9    S    
C56   H36   S    
C59   H42   S    
C36   F4    S    
C31   C32   A    
C12   C13   A    
O21   C45   S    
C37   H8    S    
C32   C34   A    
C2    C28   S    
O14   V3    S    
O2    C1    A    
V4    O20   S    
C33   C40   A    
C28   C38   A    
O11   C42   A    
C48   H17   S    
O13   V3    S    
C50   H20   S    
C36   C37   A    
C5    H1    S    
C40   C41   S    
C51   H24   S    
C20   F1    S    
C62   H48   S    
O3    C4    A    
C29   C30   A    
O6    V2    S    
O9    V2    S    
V3    O20   S    
C60   H45   S    
C54   C55   S    
C3    C20   S    
O25   C57   S    
C6    C16   A    
C57   C58   S    
C61   H46   S    
C51   H23   S    
C46   C47   S    
C55   H32   S    
C48   C49   S    
C35   C36   A    
C18   C43   S    
O1    C2    A    
C24   C42   S    
C4    C6    S    
C11   C15   A    
C47   H14   S    
C58   H40   S    
C57   H38   S    
O5    V1    S    
O8    C3    A    
C59   H41   S    
O13   C44   A    
C49   C50   S    
C7    F9    S    
C54   H31   S    
O7    V2    S    
C11   C18   A    
O18   C43   A    
O3    V1    S    
V1    O10   S    
C54   H30   S    
C28   C39   A    
O18   V4    S    
C45   C46   S    
C48   H16   S    
O15   V3    S    
C1    C26   S    
C9    O26   S    
C19   H3    S    
O17   V4    S    
C51   C52   S    
C10   C12   A    
O23   C51   S    
C14   F5    S    
C27   C35   A    
O4    V1    S    
C7    C8    A    
C30   C31   A    
C53   H27   S    
C14   C15   A    
C60   H44   S    
C9    C10   A    
C30   F7    S    
C31   O25   S    
O22   C48   S    
C8    C9    A    
C6    C17   A    
C52   C53   S    
C22   F2    S    
C58   H39   S    
C7    C18   A    
O2    V1    S    
