data_mof_unit_pretest_1180.cif
_audit_creation_date              2012-12-10T17:51:27-0500
_audit_creation_method            fapswitch 2.2
_symmetry_space_group_name_H-M    P1
_symmetry_Int_Tables_number       1
_space_group_crystal_system       triclinic
_cell_length_a                    9.9607
_cell_length_b                    10.60023
_cell_length_c                    16.610017
_cell_angle_alpha                 92.719138
_cell_angle_beta                  85.821324
_cell_angle_gamma                 89.890595
_cell_volume                      1747.12361191

loop_
_atom_site_label
_atom_site_type_symbol
_atom_type_description
_atom_site_fract_x
_atom_site_fract_y
_atom_site_fract_z
_atom_type_partial_charge
C1    C     C_R   0.499782 0.739195 0.499658 0.884805
C2    C     C_R   0.353859 0.471516 0.784690 -0.210882
C3    C     C_R   0.416742 0.436007 0.136426 -0.114631
C4    C     C_R   0.410348 0.472076 0.217750 -0.187501
C5    C     C_R   0.653443 0.454327 0.216553 -0.208123
C6    C     C_R   0.659820 0.418646 0.134742 -0.199713
C7    C     C_R   0.541282 0.404970 0.094997 0.216201
C8    C     C_2   0.446634 0.323406 0.970516 -0.273696
C9    C     C_2   0.551162 0.369696 0.008611 -0.253839
C10   C     C_R   0.528164 0.478581 0.258818 -0.036201
C11   C     C_R   0.440163 0.857567 0.353244 -0.252476
C12   C     C_R   0.481653 0.492064 0.652569 0.853140
C13   C     C_R   0.414980 0.917600 0.282985 -0.267908
C14   C     C_R   0.423797 0.049796 0.280589 0.567140
C15   C     C_R   0.449034 0.120081 0.351220 -0.268628
C16   C     C_R   0.472748 0.060123 0.423114 0.006966
C17   C     C_R   0.470401 0.928270 0.423763 0.092792
C18   C     C_R   0.499386 0.871253 0.495472 -0.089838
C19   C     C_R   0.527797 0.940553 0.565243 -0.193079
C20   C     C_R   0.526762 0.069586 0.565176 -0.216714
C21   C     C_R   0.500531 0.128087 0.494864 -0.063558
C22   C     C_R   0.858873 0.701987 0.587595 0.445727
C23   C     C_R   0.500219 0.260744 0.498935 0.860121
C24   C     C_R   0.932540 0.812722 0.604468 0.374240
C25   C     C_R   0.069967 0.801132 0.610884 -0.384539
C26   C     C_R   0.133919 0.688468 0.587079 -0.240095
C27   C     C_R   0.068636 0.594563 0.542427 0.114955
C28   C     C_R   0.924475 0.597402 0.542308 -0.011963
C29   C     C_R   0.933651 0.408900 0.459342 -0.138049
C30   C     C_R   0.076364 0.409131 0.459218 -0.102566
C31   C     C_R   0.518193 0.497680 0.346488 0.817201
C32   C     C_R   0.470138 0.446599 0.733762 -0.037029
C33   C     C_R   0.568066 0.362714 0.756384 -0.217334
C34   C     C_R   0.555226 0.311802 0.831792 -0.166833
C35   C     C_R   0.443584 0.343907 0.884844 0.205381
C36   C     C_R   0.340547 0.419892 0.860209 -0.161036
H1    H     H_    0.654438 0.336460 0.715765 0.147348
H2    H     H_    0.756921 0.398536 0.102928 0.132993
H3    H     H_    0.548567 0.894567 0.619981 0.173947
H4    H     H_    0.435230 0.755704 0.351761 0.163100
H5    H     H_    0.388138 0.860150 0.231154 0.143312
H6    H     H_    0.452188 0.221859 0.348677 0.155956
H7    H     H_    0.544883 0.124226 0.620094 0.143613
H8    H     H_    0.884578 0.334248 0.426052 0.140716
H9    H     H_    0.312633 0.492394 0.248679 0.155979
H10   H     H_    0.125592 0.877224 0.638620 0.195934
H11   H     H_    0.233859 0.677326 0.604722 0.231772
H12   H     H_    0.133802 0.334684 0.425684 0.146279
H13   H     H_    0.745939 0.459213 0.246999 0.159869
H14   H     H_    0.642930 0.395937 0.973946 0.160815
H15   H     H_    0.254348 0.445760 0.901313 0.125396
H16   H     H_    0.323944 0.434463 0.106469 0.117261
H17   H     H_    0.275107 0.532588 0.766708 0.145577
H18   H     H_    0.353482 0.297655 0.003500 0.149800
H19   H     H_    0.634939 0.252334 0.850284 0.138424
N1    N     N_R   0.857140 0.501200 0.500750 -0.091777
N2    N     N_R   0.142740 0.501280 0.500770 -0.094699
O1    O     O_R   0.385310 0.683220 0.500000 -0.635701
O2    O     O_R   0.614640 0.683250 0.500010 -0.560227
O3    O     O_R   0.371780 0.500010 0.615800 -0.637333
O4    O     O_R   0.601110 0.500030 0.615800 -0.560593
O5    O     O_R   0.385360 0.316750 0.499990 -0.612377
O6    O     O_R   0.614690 0.316780 0.500000 -0.627101
O7    O     O_R   0.398890 0.499970 0.384200 -0.619631
O8    O     O_R   0.628220 0.499990 0.384200 -0.616668
Zn1   Zn    Zn3+2 0.346870 0.499980 0.499990 0.937615
Zn2   Zn    Zn3+2 0.653130 0.500020 0.500010 0.966290
O9    O     O_3   0.400448 0.115239 0.212391 -0.655502
C37   C     C_3   0.475824 0.065894 0.142142 0.083479
H20   H     H_    0.450068 0.124115 0.091595 0.184560
H21   H     H_    0.445459 0.968241 0.124770 0.119737
C38   C     C_3   0.628771 0.073988 0.149585 -0.373071
H22   H     H_    0.654737 0.169031 0.174479 0.242584
H23   H     H_    0.660341 0.003125 0.191744 0.210496
C39   C     C_3   0.706809 0.048959 0.067867 -0.950068
H24   H     H_    0.683148 0.953456 0.042412 0.263855
H25   H     H_    0.816513 0.054014 0.075505 0.263649
H26   H     H_    0.680903 0.120824 0.024929 0.270215
O10   O     O_3   0.732308 0.690584 0.625845 -0.595826
C40   C     C_3   0.734813 0.698317 0.711717 0.100089
H27   H     H_    0.630003 0.684334 0.737125 0.146104
H28   H     H_    0.762712 0.793772 0.734968 0.177469
C41   C     C_3   0.825642 0.597417 0.744318 -0.392098
H29   H     H_    0.807281 0.503988 0.714443 0.240183
H30   H     H_    0.933168 0.621278 0.730643 0.207588
C42   C     C_3   0.800537 0.589328 0.835685 -0.954434
H31   H     H_    0.824498 0.680893 0.866573 0.264111
H32   H     H_    0.865767 0.514663 0.857062 0.260300
H33   H     H_    0.693825 0.565463 0.852013 0.276421
O11   O     O_3   0.866975 0.922428 0.633642 -0.618196
C43   C     C_3   0.893313 0.018648 0.578626 0.114696
H34   H     H_    0.824040 0.008174 0.529189 0.162983
H35   H     H_    0.999031 0.017994 0.551272 0.136982
C44   C     C_3   0.868548 0.146428 0.622868 -0.821952
H36   H     H_    0.945714 0.163743 0.667064 0.246905
H37   H     H_    0.874189 0.222434 0.579084 0.220400
H38   H     H_    0.767748 0.148617 0.655843 0.250016

loop_
_geom_bond_atom_site_label_1
_geom_bond_atom_site_label_2
_ccdc_geom_bond_type
C8    C9    D    
C16   C21   A    
C35   C36   A    
N2    Zn1   S    
C13   H5    S    
C28   N1    A    
C1    C18   S    
C30   H12   S    
C22   O10   S    
C18   C19   A    
C3    C7    A    
C37   H20   S    
C38   C39   S    
C5    C6    A    
C42   H32   S    
C15   C16   A    
C30   N2    A    
C2    C32   A    
C34   C35   A    
C37   H21   S    
O2    Zn2   S    
O9    C37   S    
C10   C31   S    
O1    Zn1   S    
C23   O5    A    
C19   C20   A    
C16   C17   A    
O8    Zn2   S    
C6    H2    S    
C23   O6    A    
O3    Zn1   S    
C34   H19   S    
C22   C28   A    
C13   C14   A    
C12   C32   S    
C5    H13   S    
C44   H36   S    
C40   C41   S    
C33   C34   A    
C4    H9    S    
O6    Zn2   S    
O5    Zn1   S    
C24   C25   A    
C38   H23   S    
C27   N2    A    
C8    H18   S    
C43   H34   S    
C42   H31   S    
C40   H27   S    
C44   H38   S    
C25   C26   A    
C42   H33   S    
C33   H1    S    
C8    C35   S    
O7    Zn1   S    
C37   C38   S    
C39   H24   S    
C29   C30   A    
C43   H35   S    
O4    Zn2   S    
C41   H29   S    
C17   C18   A    
C26   C27   A    
C44   H37   S    
C39   H25   S    
C36   H15   S    
C19   H3    S    
C26   H11   S    
C40   H28   S    
C41   H30   S    
C21   C23   S    
C29   H8    S    
C22   C24   A    
C4    C10   A    
C3    C4    A    
C20   H7    S    
C2    C36   A    
C31   O8    A    
C11   C17   A    
C31   O7    A    
C9    H14   S    
C15   H6    S    
C38   H22   S    
C2    H17   S    
C24   O11   S    
C3    H16   S    
C6    C7    A    
C29   N1    A    
N1    Zn2   S    
C32   C33   A    
C1    O2    A    
C5    C10   A    
C1    O1    A    
C43   C44   S    
C12   O4    A    
C11   C13   A    
O11   C43   S    
C11   H4    S    
C39   H26   S    
O10   C40   S    
C12   O3    A    
C7    C9    S    
C41   C42   S    
C20   C21   A    
C27   C28   A    
C14   O9    S    
C14   C15   A    
C25   H10   S    
