data_mof_unit_pretest_1058.cif
_audit_creation_date              2012-12-11T16:25:32-0500
_audit_creation_method            fapswitch 2.2
_symmetry_space_group_name_H-M    P1
_symmetry_Int_Tables_number       1
_space_group_crystal_system       triclinic
_cell_length_a                    20.078148
_cell_length_b                    7.260582
_cell_length_c                    13.804645
_cell_angle_alpha                 90.000326
_cell_angle_beta                  102.840865
_cell_angle_gamma                 89.999856
_cell_volume                      1962.09927004

loop_
_atom_site_label
_atom_site_type_symbol
_atom_type_description
_atom_site_fract_x
_atom_site_fract_y
_atom_site_fract_z
_atom_type_partial_charge
O1    O     O_R   0.449520 0.506760 0.599710 -0.543179
O2    O     O_R   0.550480 0.006760 0.400290 -0.543174
O3    O     O_R   0.587930 0.180200 0.595790 -0.536106
O4    O     O_R   0.412070 0.680200 0.404210 -0.536110
C1    C     C_R   0.614790 0.345551 0.616903 0.692897
C2    C     C_R   0.385210 0.845552 0.383098 0.692890
O5    O     O_R   0.452350 0.177380 0.611700 -0.543730
O6    O     O_R   0.547650 0.677380 0.388300 -0.543734
O7    O     O_R   0.413930 0.001760 0.416320 -0.541007
O8    O     O_R   0.586070 0.501760 0.583680 -0.541004
C3    C     C_R   0.436821 0.344407 0.638056 0.713540
C4    C     C_R   0.563177 0.844406 0.361941 0.713529
O9    O     O_3   0.487550 0.337460 0.435880 -0.381815
O10   O     O_3   0.512450 0.837460 0.564120 -0.381813
V1    V     V_3+5 0.502310 0.064670 0.511900 1.419044
V2    V     V_3+5 0.497690 0.564670 0.488100 1.419038
C5    C     C_R   0.610954 0.787386 0.113761 -0.160243
C6    C     C_R   0.389045 0.287395 0.886237 -0.160252
H1    H     H_    0.694440 0.792444 0.989786 0.140070
H2    H     H_    0.305560 0.292470 0.010214 0.140065
H3    H     H_    0.586689 0.757461 0.037131 0.108633
H4    H     H_    0.413311 0.257468 0.962870 0.108630
C7    C     C_R   0.602228 0.842906 0.283612 -0.044626
C8    C     C_R   0.397770 0.342910 0.716385 -0.044630
C9    C     C_R   0.928481 0.926829 0.313781 0.258119
C10   C     C_R   0.071518 0.426837 0.686215 0.258120
C11   C     C_R   0.892764 0.913694 0.389375 -0.199595
C12   C     C_R   0.107236 0.413697 0.610621 -0.199603
C13   C     C_R   0.823634 0.872289 0.367558 -0.156734
C14   C     C_R   0.176365 0.372291 0.632439 -0.156734
C15   C     C_R   0.787357 0.850173 0.268162 0.085042
C16   C     C_R   0.212642 0.350180 0.731835 0.085040
C17   C     C_R   0.825252 0.842154 0.192175 -0.007923
C18   C     C_R   0.174746 0.342160 0.807821 -0.007915
C19   C     C_R   0.714617 0.840600 0.241644 0.065681
C20   C     C_R   0.285382 0.340611 0.758353 0.065679
C21   C     C_R   0.681651 0.814036 0.140646 0.101586
C22   C     C_R   0.318348 0.314050 0.859352 0.101587
C23   C     C_R   0.719566 0.808361 0.067363 -0.187122
C24   C     C_R   0.280433 0.308379 0.932636 -0.187118
C25   C     C_R   0.790195 0.820130 0.092578 -0.224340
C26   C     C_R   0.209804 0.320142 0.907419 -0.224334
C27   C     C_R   0.673166 0.862282 0.311460 -0.288855
C28   C     C_R   0.326832 0.362298 0.688536 -0.288847
C29   C     C_R   0.571697 0.789232 0.185808 0.188267
C30   C     C_R   0.428300 0.289225 0.814188 0.188256
C31   C     C_R   0.896976 0.870130 0.216509 -0.114358
C32   C     C_R   0.103022 0.370132 0.783487 -0.114358
H5    H     H_    0.694371 0.891152 0.388729 0.116119
H6    H     H_    0.305628 0.391178 0.611266 0.116115
H7    H     H_    0.799679 0.866575 0.429968 0.135541
H8    H     H_    0.200320 0.366574 0.570029 0.135543
H9    H     H_    0.918077 0.944791 0.465367 0.119470
H10   H     H_    0.081923 0.444792 0.534630 0.119474
H11   H     H_    0.816895 0.815393 0.032611 0.138675
H12   H     H_    0.183104 0.315408 0.967387 0.138677
H13   H     H_    0.095920 0.745455 0.456935 0.099125
H14   H     H_    0.904083 0.245455 0.543070 0.099123
C33   C     C_R   0.243212 0.861186 0.039219 0.133278
C34   C     C_R   0.756788 0.361189 0.960784 0.133279
C35   C     C_R   0.304422 0.884790 0.006196 0.209579
C36   C     C_R   0.695578 0.384783 0.993808 0.209575
C37   C     C_R   0.364779 0.926489 0.073045 -0.131501
C38   C     C_R   0.635219 0.426464 0.926958 -0.131503
C39   C     C_R   0.367936 0.922661 0.174096 -0.196936
C40   C     C_R   0.632063 0.422639 0.825908 -0.196932
C41   C     C_R   0.309773 0.881716 0.210977 0.017126
C42   C     C_R   0.690226 0.381711 0.789025 0.017129
C43   C     C_R   0.244686 0.866570 0.143188 0.035769
C44   C     C_R   0.755314 0.366571 0.856814 0.035766
C45   C     C_R   0.316145 0.858976 0.314318 -0.132643
C46   C     C_R   0.683855 0.358973 0.685684 -0.132644
C47   C     C_R   0.256392 0.843110 0.351507 0.012635
C48   C     C_R   0.743608 0.343099 0.648495 0.012634
C49   C     C_R   0.191310 0.827561 0.285461 0.044123
C50   C     C_R   0.808690 0.327554 0.714541 0.044127
C51   C     C_R   0.184488 0.850688 0.181761 -0.145201
C52   C     C_R   0.815512 0.350687 0.818241 -0.145198
C53   C     C_R   0.259959 0.851127 0.454433 -0.182697
C54   C     C_R   0.740041 0.351105 0.545568 -0.182692
C55   C     C_R   0.201670 0.823350 0.492750 0.359091
C56   C     C_R   0.798331 0.323333 0.507253 0.359089
C57   C     C_R   0.140133 0.779228 0.427817 -0.195842
C58   C     C_R   0.859869 0.279220 0.572187 -0.195844
C59   C     C_R   0.134183 0.786653 0.325481 -0.171805
C60   C     C_R   0.865818 0.286647 0.674522 -0.171796
H15   H     H_    0.410484 0.954767 0.046315 0.156998
H16   H     H_    0.589513 0.454727 0.953689 0.156991
H17   H     H_    0.416773 0.951008 0.223305 0.155072
H18   H     H_    0.583225 0.450972 0.776700 0.155067
H19   H     H_    0.307555 0.887231 0.504746 0.116232
H20   H     H_    0.692445 0.387200 0.495253 0.116231
H21   H     H_    0.084450 0.759933 0.278263 0.130470
H22   H     H_    0.915551 0.259934 0.721741 0.130460
O11   O     O_R   0.913760 0.203480 0.916370 -0.530638
O12   O     O_R   0.086240 0.703480 0.083630 -0.530635
O13   O     O_R   0.047590 0.535230 0.888250 -0.529864
O14   O     O_R   0.952410 0.035230 0.111750 -0.529874
C61   C     C_R   0.063166 0.369552 0.861547 0.716320
C62   C     C_R   0.936831 0.869552 0.138449 0.716332
O15   O     O_R   0.912020 0.532880 0.904260 -0.537949
O16   O     O_R   0.087980 0.032880 0.095740 -0.537950
O17   O     O_R   0.949590 0.708460 0.099750 -0.550658
O18   O     O_R   0.050410 0.208460 0.900250 -0.550659
C63   C     C_R   0.885420 0.363862 0.884032 0.772979
C64   C     C_R   0.114580 0.863862 0.115969 0.772976
O19   O     O_3   0.012370 0.375360 0.064120 -0.383153
O20   O     O_3   0.987630 0.875360 0.935880 -0.383151
V3    V     V_3+5 0.997700 0.648160 0.988110 1.437234
V4    V     V_3+5 0.002300 0.148160 0.011890 1.437215
N1    N     N_3   0.501852 0.729700 0.160852 -0.703726
H23   H     H_    0.487537 0.695515 0.085482 0.227209
H24   H     H_    0.498538 0.607248 0.199296 0.241482
N2    N     N_3   0.498140 0.229645 0.839136 -0.703709
H25   H     H_    0.512458 0.195473 0.914507 0.227206
H26   H     H_    0.501438 0.107174 0.800697 0.241488
N3    N     N_3   0.181044 0.824093 0.967541 -0.670273
H27   H     H_    0.187542 0.706686 0.926938 0.233351
H28   H     H_    0.169888 0.935757 0.918910 0.229024
N4    N     N_3   0.818957 0.324100 0.032461 -0.670274
H29   H     H_    0.812461 0.206684 0.073059 0.233345
H30   H     H_    0.830109 0.435756 0.081098 0.229023
N5    N     N_3   0.306908 0.861478 0.904564 -0.685375
H31   H     H_    0.268992 0.943273 0.861194 0.240793
H32   H     H_    0.296351 0.723140 0.887014 0.233163
N6    N     N_3   0.693093 0.361475 0.095440 -0.685373
H33   H     H_    0.731005 0.443285 0.138807 0.240796
H34   H     H_    0.703656 0.223140 0.112992 0.233162
N7    N     N_2   0.202756 0.854846 0.594837 -0.529963
H35   H     H_    0.157004 0.844171 0.616769 0.255100
C65   C     C_3   0.262899 0.804133 0.668597 -0.532483
H36   H     H_    0.247006 0.720989 0.726513 0.198264
H37   H     H_    0.289499 0.930794 0.701434 0.225564
H38   H     H_    0.299003 0.719620 0.637439 0.195572
N8    N     N_2   0.797246 0.354831 0.405167 -0.529962
H39   H     H_    0.842999 0.344140 0.383236 0.255101
C66   C     C_3   0.737103 0.304129 0.331405 -0.532484
H40   H     H_    0.752997 0.221006 0.273483 0.198262
H41   H     H_    0.710500 0.430796 0.298579 0.225564
H42   H     H_    0.701001 0.219596 0.362556 0.195573
N9    N     N_2   0.994746 0.006819 0.335420 -0.535162
H43   H     H_    0.022385 0.968727 0.404418 0.249292
C67   C     C_3   0.994432 0.205806 0.327596 -0.509993
H44   H     H_    0.047602 0.256024 0.335342 0.195897
H45   H     H_    0.972938 0.268080 0.387645 0.158980
H46   H     H_    0.963682 0.252348 0.254737 0.223120
N10   N     N_2   0.005255 0.506841 0.664575 -0.535143
H47   H     H_    0.977614 0.468740 0.595579 0.249292
C68   C     C_3   0.005576 0.705831 0.672381 -0.510029
H48   H     H_    0.952405 0.756076 0.664594 0.195882
H49   H     H_    0.027095 0.768070 0.612348 0.158988
H50   H     H_    0.036308 0.752385 0.745247 0.223129

loop_
_geom_bond_atom_site_label_1
_geom_bond_atom_site_label_2
_ccdc_geom_bond_type
C67   H46   S    
C40   C42   A    
C37   C39   A    
C54   H20   S    
N6    H33   S    
C7    C29   A    
C11   C13   A    
C43   C51   A    
N1    H23   S    
O1    C3    A    
C65   H38   S    
O2    C4    A    
C2    O7    A    
N2    H25   S    
N5    H31   S    
C23   C25   A    
C39   H17   S    
C66   H41   S    
C4    C7    S    
C48   C50   A    
C52   C63   S    
O14   V4    S    
C16   C20   A    
C51   C64   S    
C19   C21   A    
C58   C60   A    
C1    C46   S    
C68   H49   S    
H2    C24   S    
N5    H32   S    
C44   C52   A    
O15   V3    S    
C67   H44   S    
C3    C8    S    
C7    C27   A    
O20   V3    S    
C34   C36   A    
C56   N8    S    
C35   C37   A    
C25   H11   S    
C36   C38   A    
C60   H22   S    
C26   H12   S    
C59   H21   S    
C49   C59   A    
N10   H47   S    
C39   C41   A    
C18   C26   A    
C15   C17   A    
O16   C64   A    
C19   C27   A    
C9    C31   A    
C53   H19   S    
C10   C32   A    
C24   C26   A    
C61   O18   A    
C66   H40   S    
C33   N3    S    
C22   C24   A    
C48   C54   A    
C11   H9    S    
C13   C15   A    
C47   C49   A    
C6    C30   A    
O13   C61   A    
N4    H30   S    
O15   C63   A    
C2    C45   S    
C66   H42   S    
C33   C35   A    
C30   N2    S    
N8    H39   S    
C46   C48   A    
C68   H50   S    
C53   C55   A    
C12   H10   S    
C27   H5    S    
O5    V1    S    
C65   H37   S    
N8    C66   S    
C62   O17   A    
C5    H3    S    
C31   C62   S    
C5    C29   A    
C42   C46   A    
C41   C43   A    
N9    C67   S    
C38   C40   A    
O4    V2    S    
O5    C3    A    
H14   C58   S    
O13   V3    S    
C55   N7    S    
C34   C44   A    
O6    C4    A    
H13   C57   S    
C47   C53   A    
N1    H24   S    
O1    V2    S    
C5    C21   A    
O2    V1    S    
C49   C51   A    
H1    C23   S    
C33   C43   A    
C54   C56   A    
C57   C59   A    
C56   C58   A    
N9    H43   S    
C17   C31   A    
O19   V4    S    
C15   C19   A    
O16   V4    S    
O4    C2    A    
C18   C32   A    
C65   H36   S    
C50   C60   A    
O3    V1    S    
N4    H29   S    
O18   V4    S    
C36   N6    S    
N7    H35   S    
C13   H7    S    
C28   H6    S    
C67   H45   S    
C32   C61   S    
O12   C64   A    
N6    H34   S    
C37   H15   S    
C6    H4    S    
C10   C12   A    
C9    N9    S    
C50   C52   A    
O3    C1    A    
O11   V4    S    
C55   C57   A    
N2    H26   S    
C29   N1    S    
C9    C11   A    
N10   C68   S    
O12   V3    S    
O14   C62   A    
O17   V3    S    
C35   N5    S    
C8    C30   A    
N3    H28   S    
C6    C22   A    
C17   C25   A    
C12   C14   A    
C21   C23   A    
O8    V2    S    
C68   H48   S    
C14   C16   A    
C14   H8    S    
C8    C28   A    
C20   C22   A    
C40   H18   S    
O11   C63   A    
C34   N4    S    
C41   C45   A    
O7    V1    S    
C10   N10   S    
C20   C28   A    
C1    O8    A    
O6    V2    S    
O9    V2    S    
C45   C47   A    
C42   C44   A    
O10   V1    S    
N3    H27   S    
C38   H16   S    
C16   C18   A    
N7    C65   S    
