data_mof_unit_pretest_559.cif
_audit_creation_date              2013-03-05T16:17:51-0500
_audit_creation_method            fapswitch 2.2
_symmetry_space_group_name_H-M    P1
_symmetry_Int_Tables_number       1
_space_group_crystal_system       triclinic
_cell_length_a                    15.085562
_cell_length_b                    15.78339
_cell_length_c                    9.664908
_cell_angle_alpha                 90.263529
_cell_angle_beta                  90.384476
_cell_angle_gamma                 89.927805
_cell_volume                      2301.14935057

loop_
_atom_site_label
_atom_site_type_symbol
_atom_site_description
_atom_site_fract_x
_atom_site_fract_y
_atom_site_fract_z
_atom_type_partial_charge
O1    O     O_R   0.092530 0.407440 0.616040 -0.620420
O2    O     O_R   0.092530 0.407440 0.383960 -0.606028
O3    O     O_R   0.092530 0.592560 0.383960 -0.605154
O4    O     O_R   0.092530 0.592560 0.616040 -0.603531
O5    O     O_R   0.592530 0.907440 0.616040 -0.620336
O6    O     O_R   0.592530 0.907440 0.383960 -0.606038
O7    O     O_R   0.592530 0.092560 0.383960 -0.605086
O8    O     O_R   0.592530 0.092560 0.616040 -0.603381
C1    C     C_R   0.119339 0.376280 0.500502 1.020416
C2    C     C_R   0.122072 0.621368 0.500155 1.013500
C3    C     C_R   0.619336 0.876277 0.500503 1.020541
C4    C     C_R   0.622061 0.121378 0.500157 1.013633
O9    O     O_R   0.907330 0.407420 0.616040 -0.646762
O10   O     O_R   0.907330 0.407420 0.383960 -0.614503
O11   O     O_R   0.907330 0.592580 0.383960 -0.639701
O12   O     O_R   0.907330 0.592580 0.616040 -0.621028
O13   O     O_R   0.407330 0.907420 0.616040 -0.646717
O14   O     O_R   0.407330 0.907420 0.383960 -0.614541
O15   O     O_R   0.407330 0.092580 0.383960 -0.639742
O16   O     O_R   0.407330 0.092580 0.616040 -0.621102
C5    C     C_R   0.877858 0.380092 0.498887 0.931085
C6    C     C_R   0.878092 0.620224 0.500244 0.935532
C7    C     C_R   0.377844 0.880104 0.498887 0.931096
C8    C     C_R   0.378097 0.120230 0.500246 0.935586
Zn1   Zn    Zn3+2 0.999890 0.500000 0.654960 0.991580
Zn2   Zn    Zn3+2 0.999890 0.500000 0.345040 0.996852
Zn3   Zn    Zn3+2 0.499890 0.000000 0.654960 0.991609
Zn4   Zn    Zn3+2 0.499890 0.000000 0.345040 0.996843
C9    C     C_3   0.830954 0.249103 0.618374 0.123739
C10   C     C_3   0.801862 0.270429 0.346297 0.132122
C11   C     C_3   0.830884 0.753926 0.384063 0.123492
C12   C     C_3   0.800899 0.726751 0.652246 0.134018
C13   C     C_3   0.330914 0.749148 0.618423 0.123866
C14   C     C_3   0.301892 0.770408 0.346308 0.132064
C15   C     C_3   0.330874 0.253914 0.384023 0.123408
C16   C     C_3   0.300958 0.226816 0.652233 0.133961
H1    H     H_    0.823846 0.287233 0.715473 0.113906
H2    H     H_    0.766277 0.319378 0.283845 0.088313
H3    H     H_    0.822137 0.717968 0.285008 0.121118
H4    H     H_    0.767790 0.676300 0.713898 0.092743
H5    H     H_    0.323775 0.787296 0.715497 0.113773
H6    H     H_    0.266307 0.819337 0.283813 0.088279
H7    H     H_    0.322117 0.217936 0.284990 0.121006
H8    H     H_    0.267888 0.176381 0.713969 0.092702
C17   C     C_3   0.256349 0.682014 0.626787 0.071449
C18   C     C_3   0.238613 0.693733 0.353172 0.070197
C19   C     C_3   0.257492 0.322742 0.379307 0.082622
C20   C     C_3   0.236356 0.302520 0.649088 0.061300
C21   C     C_3   0.756378 0.181976 0.626742 0.071605
C22   C     C_3   0.738564 0.193768 0.353157 0.070184
C23   C     C_3   0.757508 0.822758 0.379351 0.082634
C24   C     C_3   0.736316 0.802465 0.649116 0.061338
H9    H     H_    0.215206 0.702475 0.716899 0.120523
H10   H     H_    0.184724 0.707924 0.276810 0.124442
H11   H     H_    0.218556 0.311218 0.282328 0.103854
H12   H     H_    0.182400 0.287073 0.723443 0.121397
H13   H     H_    0.715269 0.202431 0.716896 0.120564
H14   H     H_    0.684659 0.207986 0.276837 0.124546
H15   H     H_    0.718588 0.811254 0.282351 0.103889
H16   H     H_    0.682336 0.787010 0.723424 0.121459
H17   H     H_    0.717269 0.379310 0.631474 0.216533
H18   H     H_    0.701812 0.401041 0.452500 0.220356
H19   H     H_    0.718997 0.622358 0.359778 0.218298
H20   H     H_    0.702357 0.598045 0.537320 0.218720
H21   H     H_    0.217208 0.879330 0.631381 0.216536
H22   H     H_    0.201799 0.901033 0.452388 0.220355
H23   H     H_    0.218976 0.122337 0.359891 0.218286
H24   H     H_    0.202380 0.098074 0.537466 0.218714
H25   H     H_    0.107358 0.780733 0.612414 0.270719
H26   H     H_    0.103232 0.791634 0.428425 0.276307
H27   H     H_    0.108748 0.221042 0.377825 0.272093
H28   H     H_    0.104149 0.206088 0.562446 0.274981
H29   H     H_    0.607421 0.280729 0.612565 0.270738
H30   H     H_    0.603207 0.291665 0.428580 0.276337
H31   H     H_    0.608770 0.721058 0.377724 0.272114
H32   H     H_    0.604133 0.706063 0.562338 0.274990
C25   C     C_3   0.718655 0.349619 0.526740 -0.574055
C26   C     C_3   0.719352 0.650559 0.465621 -0.570230
C27   C     C_3   0.218628 0.849624 0.526660 -0.574022
C28   C     C_3   0.219355 0.150566 0.465714 -0.570171
C29   C     C_3   0.812028 0.311571 0.495766 -0.143164
C30   C     C_3   0.811737 0.688559 0.501984 -0.152121
C31   C     C_3   0.312014 0.811582 0.495764 -0.143150
C32   C     C_3   0.311749 0.188575 0.501991 -0.152011
C33   C     C_3   0.191914 0.689191 0.498971 -0.231310
C34   C     C_3   0.190776 0.309890 0.501839 -0.220883
C35   C     C_3   0.691906 0.189199 0.498980 -0.231407
C36   C     C_3   0.690770 0.809881 0.501843 -0.220961
C37   C     C_3   0.147504 0.778357 0.517220 -0.421868
C38   C     C_3   0.148020 0.221252 0.474999 -0.423389
C39   C     C_3   0.647517 0.278366 0.517321 -0.421850
C40   C     C_3   0.648018 0.721247 0.474919 -0.423361
C41   C     C_3   0.060614 0.435719 0.081425 -0.209142
C42   C     C_3   0.058739 0.434467 0.918903 -0.218967
C43   C     C_3   0.028175 0.582615 0.919479 -0.220517
C44   C     C_3   0.024690 0.583704 0.081825 -0.207915
C45   C     C_3   0.560900 0.935974 0.081432 -0.209118
C46   C     C_3   0.559171 0.934838 0.918906 -0.218489
C47   C     C_3   0.527658 0.082777 0.919474 -0.220474
C48   C     C_3   0.524321 0.083807 0.081835 -0.207787
H33   H     H_    0.042939 0.371888 0.120794 0.202192
H34   H     H_    0.038646 0.370688 0.880685 0.199406
H35   H     H_    0.986076 0.633932 0.877508 0.224920
H36   H     H_    0.976775 0.632802 0.116284 0.210331
H37   H     H_    0.543427 0.872053 0.120636 0.201880
H38   H     H_    0.539596 0.870956 0.880521 0.199210
H39   H     H_    0.485146 0.133814 0.877655 0.224917
H40   H     H_    0.476249 0.132722 0.116433 0.210249
H41   H     H_    0.129157 0.448916 0.118672 0.215593
H42   H     H_    0.125949 0.446394 0.880366 0.235758
H43   H     H_    0.096842 0.596647 0.885679 0.203844
H44   H     H_    0.090170 0.602906 0.123305 0.210298
H45   H     H_    0.629358 0.949366 0.118858 0.215918
H46   H     H_    0.626321 0.947290 0.880551 0.236188
H47   H     H_    0.596186 0.097269 0.885511 0.203479
H48   H     H_    0.589774 0.103217 0.123197 0.210154
H49   H     H_    0.887423 0.417283 0.115799 0.193936
H50   H     H_    0.883927 0.421264 0.877272 0.179190
H51   H     H_    0.861620 0.532145 0.880622 0.162261
H52   H     H_    0.860162 0.526935 0.121356 0.155426
H53   H     H_    0.387762 0.916868 0.115926 0.194327
H54   H     H_    0.384499 0.920547 0.877423 0.179696
H55   H     H_    0.361405 0.031279 0.880458 0.161864
H56   H     H_    0.360066 0.026420 0.121222 0.155233
C49   C     C_3   0.909399 0.480768 0.080612 -0.241340
C50   C     C_3   0.908925 0.482909 0.917563 -0.236332
C51   C     C_3   0.409493 0.980398 0.080608 -0.241444
C52   C     C_3   0.409044 0.982390 0.917562 -0.236495
N1    N     N_3   0.998760 0.500000 0.138610 -0.078135
N2    N     N_3   0.998760 0.500000 0.861390 -0.081121
N3    N     N_3   0.498760 0.000000 0.138610 -0.078228
N4    N     N_3   0.498760 0.000000 0.861390 -0.081324
N5    N     N_R   0.921832 0.216188 0.623933 0.240309
O17   O     O_R   0.955236 0.173215 0.522387 -0.288054
O18   O     O_R   0.970131 0.229244 0.734064 -0.399013
N6    N     N_R   0.881577 0.253024 0.262738 0.258395
O19   O     O_R   0.961595 0.263196 0.309665 -0.374071
O20   O     O_R   0.871366 0.235749 0.131746 -0.348010
N7    N     N_R   0.922531 0.785635 0.379611 0.238447
O21   O     O_R   0.949491 0.847444 0.458206 -0.255514
O22   O     O_R   0.972887 0.762190 0.277567 -0.420929
N8    N     N_R   0.882597 0.745538 0.730855 0.255511
O23   O     O_R   0.959662 0.748285 0.672560 -0.380779
O24   O     O_R   0.878115 0.755744 0.864370 -0.355949
N9    N     N_R   0.421794 0.716243 0.624053 0.240365
O25   O     O_R   0.455223 0.673254 0.522546 -0.288123
O26   O     O_R   0.470093 0.729379 0.734159 -0.398865
N10   N     N_R   0.381627 0.753006 0.262797 0.258332
O27   O     O_R   0.461633 0.763204 0.309756 -0.373990
O28   O     O_R   0.371446 0.735687 0.131814 -0.347942
N11   N     N_R   0.422519 0.285630 0.379540 0.238490
O29   O     O_R   0.449483 0.347450 0.458108 -0.255499
O30   O     O_R   0.472882 0.262160 0.277520 -0.420971
N12   N     N_R   0.382680 0.245660 0.730739 0.255334
O31   O     O_R   0.459743 0.248235 0.672418 -0.380987
O32   O     O_R   0.378217 0.256125 0.864204 -0.355629
N13   N     N_R   0.285600 0.596772 0.664476 0.258685
O33   O     O_R   0.353339 0.561704 0.606029 -0.160532
O34   O     O_R   0.256737 0.564413 0.779161 -0.326381
N14   N     N_R   0.279527 0.614667 0.304927 0.287651
O35   O     O_R   0.359654 0.594292 0.341881 -0.161859
O36   O     O_R   0.245519 0.576515 0.197468 -0.338795
N15   N     N_R   0.292328 0.408256 0.363970 0.284492
O37   O     O_R   0.260673 0.469853 0.437647 -0.330223
O38   O     O_R   0.338709 0.425953 0.254758 -0.219446
N16   N     N_R   0.278937 0.379530 0.702037 0.276741
O39   O     O_R   0.351542 0.405454 0.645772 -0.175076
O40   O     O_R   0.267346 0.398560 0.831609 -0.313415
N17   N     N_R   0.785592 0.096710 0.664372 0.258810
O41   O     O_R   0.853410 0.061678 0.606096 -0.160460
O42   O     O_R   0.756570 0.064270 0.778876 -0.326670
N18   N     N_R   0.779442 0.114700 0.304861 0.287600
O43   O     O_R   0.859563 0.094290 0.341800 -0.161915
O44   O     O_R   0.745393 0.076567 0.197414 -0.339024
N19   N     N_R   0.792348 0.908276 0.364062 0.284490
O45   O     O_R   0.760676 0.969864 0.437736 -0.330230
O46   O     O_R   0.838734 0.925988 0.254862 -0.219499
N20   N     N_R   0.778904 0.879444 0.702157 0.276725
O47   O     O_R   0.851500 0.905402 0.645900 -0.175113
O48   O     O_R   0.767332 0.898394 0.831770 -0.313692

loop_
_geom_bond_atom_site_label_1
_geom_bond_atom_site_label_2
_geom_bond_distance
_ccdc_geom_bond_type
H24   C28   1.114049 S    
C9    N5    1.466192 S    
C2    C33   1.503086 S    
C41   C42   1.570858 S    
H21   C27   1.113808 S    
C35   C39   1.567605 S    
C13   C17   1.549068 S    
N17   O41   1.293471 A    
C21   C35   1.571183 S    
H18   C25   1.113775 S    
C43   C44   1.570310 S    
C48   H48   1.105866 S    
C28   C38   1.551823 S    
C28   C32   1.555370 S    
C15   C19   1.550621 S    
N9    O25   1.294918 A    
C48   N3    1.486700 S    
C16   N12   1.473201 S    
N19   O46   1.301855 A    
C9    C21   1.549118 S    
H22   C27   1.113775 S    
C44   H44   1.105725 S    
C42   N2    1.481120 S    
C11   C30   1.569322 S    
C7    C31   1.469276 S    
C47   N4    1.484440 S    
C6    C30   1.470689 S    
O10   C5    1.276334 A    
N15   O38   1.301855 A    
N10   O28   1.302003 A    
H53   C51   1.111257 S    
C41   H41   1.112222 S    
C47   H47   1.111123 S    
C41   N1    1.484883 S    
C46   H46   1.099291 S    
C50   N2    1.488706 S    
C21   H13   1.119020 S    
C10   H2    1.117262 S    
C12   C24   1.541172 S    
C24   H16   1.117301 S    
O5    Zn3   2.055650 S    
C14   N10   1.477803 S    
O11   C6    1.284392 A    
O6    Zn4   2.054677 S    
C36   C40   1.561201 S    
C45   H45   1.112145 S    
H17   C25   1.113808 S    
C27   C31   1.560843 S    
C14   H6    1.117264 S    
C43   N2    1.484510 S    
N11   O29   1.297755 A    
C17   N13   1.462316 S    
C14   C18   1.544252 S    
C15   H7    1.117829 S    
N12   O32   1.301893 A    
C18   C33   1.581608 S    
C19   N15   1.457582 S    
N11   O30   1.301018 A    
C10   C22   1.544264 S    
C17   H9    1.119023 S    
N13   O34   1.300488 A    
N16   O40   1.299385 A    
Zn3   N4    1.995315 S    
N17   O42   1.300326 A    
O9    Zn1   2.054123 S    
C15   N11   1.471925 S    
H25   C37   1.105338 S    
Zn1   N2    1.995315 S    
C52   N4    1.488594 S    
O14   Zn4   2.060008 S    
N9    O26   1.301637 A    
C43   H35   1.105526 S    
C45   C46   1.570858 S    
C51   N3    1.487528 S    
O7    C4    1.286718 A    
C48   H40   1.110525 S    
O14   C7    1.276335 A    
C22   H14   1.117469 S    
C19   C34   1.573299 S    
O16   C8    1.278589 A    
C24   C36   1.581138 S    
O1    C1    1.285649 A    
N10   O27   1.296560 A    
H29   C39   1.105313 S    
N6    O20   1.302001 A    
C34   C38   1.561156 S    
C41   H33   1.111939 S    
O6    C3    1.293315 A    
C33   C37   1.567636 S    
H52   C49   1.112495 S    
O11   Zn2   2.055050 S    
C26   C40   1.551847 S    
C42   H42   1.099255 S    
O7    Zn4   2.054720 S    
N13   O33   1.293491 A    
O13   Zn3   2.054123 S    
H30   C39   1.104572 S    
C17   C33   1.571187 S    
C9    C29   1.569498 S    
C15   C32   1.569295 S    
C1    C34   1.502215 S    
N5    O17   1.294935 A    
H28   C38   1.104251 S    
C26   C30   1.555367 S    
N19   O45   1.295093 A    
C25   C29   1.560840 S    
C3    C36   1.502239 S    
O8    C4    1.292919 A    
C18   N14   1.467065 S    
C18   H10   1.117467 S    
O9    C5    1.286467 A    
O2    Zn2   2.054677 S    
O13   C7    1.286475 A    
O10   Zn2   2.060008 S    
C23   N19   1.457598 S    
O15   Zn4   2.055050 S    
C13   C31   1.569475 S    
C45   N3    1.484845 S    
N12   O31   1.296142 A    
Zn2   N1    1.995086 S    
C13   N9    1.466196 S    
C22   C35   1.581552 S    
H32   C40   1.104235 S    
H56   C51   1.112481 S    
H31   C40   1.107033 S    
C5    C29   1.469267 S    
C10   N6    1.477807 S    
C46   N4    1.481014 S    
C44   H36   1.110563 S    
N16   O39   1.293822 A    
C20   C34   1.581093 S    
C16   H8    1.117105 S    
H26   C37   1.104563 S    
C23   H15   1.117101 S    
C14   C31   1.587709 S    
C11   N7    1.471901 S    
C51   C52   1.576259 S    
O4    Zn1   2.060605 S    
C12   C30   1.579266 S    
N18   O43   1.298608 A    
C19   H11   1.117095 S    
O12   Zn1   2.054080 S    
C20   H12   1.117301 S    
C25   C39   1.557401 S    
O12   C6    1.278595 A    
C4    C35   1.503090 S    
C12   N8    1.473221 S    
H20   C26   1.114049 S    
O3    Zn2   2.054720 S    
H23   C28   1.113707 S    
C11   C23   1.550602 S    
N6    O19   1.296571 A    
C23   C36   1.573273 S    
N20   O48   1.299436 A    
N7    O21   1.297760 A    
O1    Zn1   2.055650 S    
O5    C3    1.285646 A    
O16   Zn3   2.054080 S    
C47   H39   1.105319 S    
C46   H38   1.112335 S    
C47   C48   1.570352 S    
Zn4   N3    1.995086 S    
C13   H5    1.118192 S    
N14   O35   1.298604 A    
C10   C29   1.587680 S    
O15   C8    1.284413 A    
C8    C32   1.470725 S    
C45   H37   1.111956 S    
O3    C2    1.286704 A    
C43   H43   1.111127 S    
C21   N17   1.462359 S    
N7    O22   1.301022 A    
H55   C52   1.112739 S    
C49   C50   1.576332 S    
H27   C38   1.107055 S    
H49   C49   1.111337 S    
C16   C32   1.579300 S    
N18   O44   1.300913 A    
C11   H3    1.117833 S    
C16   C20   1.541230 S    
N8    O24   1.301890 A    
C12   H4    1.117115 S    
H54   C52   1.111693 S    
C24   N20   1.464101 S    
C27   C37   1.557427 S    
N15   O37   1.295109 A    
H51   C50   1.112820 S    
C49   N1    1.487600 S    
C20   N16   1.464147 S    
C42   H34   1.112429 S    
C9    H1    1.118197 S    
N5    O18   1.301630 A    
O8    Zn3   2.060605 S    
N8    O23   1.296155 A    
C44   N1    1.486766 S    
C22   N18   1.467023 S    
H50   C50   1.111756 S    
O2    C1    1.293295 A    
O4    C2    1.292935 A    
N14   O36   1.300899 A    
N20   O47   1.293843 A    
H19   C26   1.113708 S    
