data_mof_unit_pretest_1642.cif
_audit_creation_date              2012-12-11T16:49:48-0500
_audit_creation_method            fapswitch 2.2
_symmetry_space_group_name_H-M    P1
_symmetry_Int_Tables_number       1
_space_group_crystal_system       triclinic
_cell_length_a                    22.173212
_cell_length_b                    24.227587
_cell_length_c                    8.435889
_cell_angle_alpha                 90.0
_cell_angle_beta                  94.904821
_cell_angle_gamma                 89.98033
_cell_volume                      4515.19324587

loop_
_atom_site_label
_atom_site_type_symbol
_atom_type_description
_atom_site_fract_x
_atom_site_fract_y
_atom_site_fract_z
_atom_type_partial_charge
Ba1   Ba    Ba6+2 0.999960 0.460860 0.844880 1.637987
Ba2   Ba    Ba6+2 0.999960 0.539140 0.344880 1.637329
Ba3   Ba    Ba6+2 0.499960 0.960860 0.844880 1.637898
Ba4   Ba    Ba6+2 0.499960 0.039140 0.344880 1.637312
C1    C     C_3   0.993972 0.188389 0.509878 -0.326678
C2    C     C_R   0.819932 0.663151 0.610664 -0.132943
C3    C     C_R   0.319730 0.836981 0.109886 -0.135624
C4    C     C_R   0.319926 0.163151 0.610658 -0.132703
C5    C     C_R   0.807547 0.290911 0.206046 0.259860
C6    C     C_R   0.807299 0.708905 0.707629 0.272333
C7    C     C_R   0.307481 0.790953 0.206141 0.260196
C8    C     C_R   0.307301 0.208909 0.707619 0.272221
C9    C     C_R   0.840361 0.285512 0.355895 -0.172030
C10   C     C_R   0.839313 0.713765 0.858733 -0.145183
C11   C     C_R   0.340299 0.785550 0.355985 -0.171859
C12   C     C_3   0.991199 0.813503 0.999788 -0.346916
C13   C     C_R   0.339316 0.213769 0.858722 -0.145172
C14   C     C_R   0.885800 0.323535 0.406099 -0.043665
C15   C     C_R   0.884067 0.675232 0.910170 -0.043401
C16   C     C_R   0.385776 0.823542 0.406131 -0.043947
C17   C     C_R   0.384062 0.175229 0.910167 -0.043310
C18   C     C_R   0.185781 0.661562 0.071636 0.068788
C19   C     C_R   0.185899 0.338485 0.572256 0.064896
C20   C     C_R   0.685799 0.161548 0.071609 0.068821
C21   C     C_R   0.685885 0.838474 0.572264 0.064844
C22   C     C_R   0.136268 0.625663 0.027772 0.011382
C23   C     C_3   0.493724 0.688480 0.508993 -0.327072
C24   C     C_R   0.136171 0.374215 0.528845 0.004892
C25   C     C_R   0.636278 0.125657 0.027759 0.011379
C26   C     C_R   0.636161 0.874208 0.528844 0.005012
C27   C     C_R   0.194569 0.709944 0.979314 0.306182
C28   C     C_R   0.194625 0.290038 0.480168 0.279949
C29   C     C_R   0.694601 0.209923 0.979264 0.306173
C30   C     C_R   0.694608 0.790024 0.480182 0.279935
C31   C     C_R   0.099312 0.636033 0.888502 -0.284815
C32   C     C_R   0.098859 0.363607 0.390595 -0.291243
C33   C     C_R   0.599325 0.136027 0.888484 -0.284863
C34   C     C_3   0.491234 0.313500 0.999844 -0.346935
C35   C     C_R   0.598849 0.863599 0.390589 -0.291174
C36   C     C_R   0.112719 0.678772 0.786625 -0.034656
C37   C     C_R   0.112121 0.320802 0.289044 -0.021562
C38   C     C_R   0.612741 0.178758 0.786591 -0.034649
C39   C     C_R   0.612104 0.820787 0.289046 -0.021519
C40   C     C_3   0.003402 0.237840 0.092702 0.553078
C41   C     C_3   0.019307 0.771451 0.619127 0.434638
C42   C     C_3   0.503302 0.737873 0.092447 0.553019
C43   C     C_3   0.519307 0.271437 0.619306 0.434527
C44   C     C_R   0.158910 0.716447 0.834012 -0.183828
C45   C     C_R   0.865660 0.374870 0.161096 0.030798
C46   C     C_R   0.158467 0.283210 0.335769 -0.209971
C47   C     C_R   0.658939 0.216427 0.833966 -0.183870
C48   C     C_R   0.658449 0.783195 0.335782 -0.209930
C49   C     C_3   0.010363 0.174604 0.102269 -0.054846
C50   C     C_3   0.021407 0.833465 0.577996 -0.060329
C51   C     C_3   0.509957 0.674599 0.101304 -0.054787
C52   C     C_3   0.521430 0.333458 0.578317 -0.059967
C53   C     C_3   0.170158 0.464506 0.204925 0.311101
C54   C     C_3   0.170440 0.535366 0.704874 0.311759
C55   C     C_3   0.670147 0.964501 0.204912 0.311099
C56   C     C_R   0.865085 0.624671 0.663042 0.044194
C57   C     C_3   0.670450 0.035362 0.704868 0.311754
C58   C     C_3   0.226655 0.428667 0.224625 -0.382891
C59   C     C_3   0.227037 0.571057 0.723926 -0.383610
C60   C     C_3   0.726643 0.928661 0.224658 -0.382920
C61   C     C_3   0.727050 0.071050 0.723896 -0.383615
C62   C     C_3   0.827067 0.535289 0.988704 0.288207
C63   C     C_3   0.827913 0.464478 0.486583 0.292612
C64   C     C_3   0.327043 0.035264 0.988482 0.288762
C65   C     C_3   0.328018 0.964371 0.487465 0.292032
C66   C     C_3   0.770682 0.571990 0.986928 -0.124513
C67   C     C_R   0.365648 0.874873 0.161113 0.030701
C68   C     C_3   0.772030 0.427191 0.485128 -0.124718
C69   C     C_3   0.270654 0.071963 0.986630 -0.124323
C70   C     C_3   0.272128 0.927097 0.486112 -0.126021
C71   C     C_3   0.003588 0.246875 0.573962 0.511276
C72   C     C_3   0.001538 0.754156 0.057474 0.458656
C73   C     C_3   0.503566 0.746870 0.573649 0.511000
C74   C     C_3   0.501542 0.254146 0.057523 0.458545
C75   C     C_R   0.899807 0.366422 0.305589 -0.284083
C76   C     C_R   0.897841 0.632076 0.810082 -0.292942
C77   C     C_R   0.399809 0.866409 0.305578 -0.283820
C78   C     C_R   0.365072 0.124667 0.663043 0.044087
C79   C     C_R   0.397826 0.132068 0.810087 -0.293087
C80   C     C_R   0.819772 0.336954 0.109821 -0.135088
H1    H     H_    0.259127 0.445884 0.319408 0.122593
H2    H     H_    0.248632 0.572614 0.609939 0.129307
H3    H     H_    0.212451 0.984870 0.385376 0.213172
H4    H     H_    0.209245 0.642696 0.303767 0.222451
H5    H     H_    0.249282 0.608911 0.171047 0.178310
H6    H     H_    0.209699 0.357654 0.803956 0.222233
H7    H     H_    0.249466 0.391283 0.670361 0.180008
H8    H     H_    0.709254 0.142680 0.303744 0.222431
H9    H     H_    0.749292 0.108893 0.171030 0.178317
H10   H     H_    0.709683 0.857630 0.803970 0.222231
H11   H     H_    0.749447 0.891272 0.670397 0.180013
H12   H     H_    0.940083 0.295176 0.014032 0.198542
H13   H     H_    0.748521 0.927132 0.111090 0.129845
H14   H     H_    0.910883 0.237681 0.085843 0.124609
H15   H     H_    0.958773 0.714299 0.683474 0.136398
H16   H     H_    0.935234 0.748353 0.518342 0.217138
H17   H     H_    0.440236 0.795524 0.014204 0.198712
H18   H     H_    0.410802 0.738086 0.085855 0.124490
H19   H     H_    0.458741 0.214230 0.683149 0.136704
H20   H     H_    0.435179 0.248534 0.518528 0.216986
H21   H     H_    0.042257 0.163172 0.882642 0.233285
H22   H     H_    0.965924 0.158549 0.882797 0.214993
H23   H     H_    0.978147 0.819625 0.357183 0.231074
H24   H     H_    0.748637 0.072606 0.609897 0.129305
H25   H     H_    0.934454 0.849564 0.486160 0.196031
H26   H     H_    0.541793 0.663272 0.881596 0.233427
H27   H     H_    0.465424 0.659093 0.881629 0.215492
H28   H     H_    0.478351 0.319637 0.357115 0.230968
H29   H     H_    0.434454 0.349514 0.486020 0.195914
H30   H     H_    0.843220 0.533493 0.868301 0.002495
H31   H     H_    0.843555 0.466850 0.365705 0.000218
H32   H     H_    0.343154 0.033397 0.868040 0.002046
H33   H     H_    0.343876 0.966487 0.366794 0.000109
H34   H     H_    0.862600 0.553717 0.073320 0.053404
H35   H     H_    0.863972 0.445993 0.569587 0.053602
H36   H     H_    0.362598 0.053742 0.072939 0.053165
H37   H     H_    0.259663 0.553695 0.818152 0.123275
H38   H     H_    0.363953 0.946063 0.571158 0.054797
H39   H     H_    0.783362 0.615714 0.970746 0.062379
H40   H     H_    0.784687 0.384071 0.459255 0.064876
H41   H     H_    0.283293 0.115659 0.969786 0.062172
H42   H     H_    0.284976 0.883827 0.463326 0.065577
H43   H     H_    0.751009 0.568901 0.103486 0.123651
H44   H     H_    0.754586 0.427488 0.604969 0.120667
H45   H     H_    0.251106 0.069053 0.103387 0.123674
H46   H     H_    0.254014 0.928225 0.604999 0.121497
H47   H     H_    0.006299 0.274882 0.470253 -0.078439
H48   H     H_    0.759097 0.945870 0.319499 0.122595
H49   H     H_    0.999754 0.727325 0.950273 -0.032020
H50   H     H_    0.506348 0.774994 0.470198 -0.078070
H51   H     H_    0.499764 0.227315 0.950311 -0.031890
H52   H     H_    0.032267 0.176034 0.441208 0.056948
H53   H     H_    0.950466 0.815526 0.913734 0.103995
H54   H     H_    0.531961 0.676082 0.440218 0.057067
H55   H     H_    0.450517 0.315540 0.913746 0.104035
H56   H     H_    0.990899 0.158580 0.608516 0.127750
H57   H     H_    0.031241 0.828560 0.942512 0.081348
H58   H     H_    0.490519 0.658582 0.607344 0.127819
H59   H     H_    0.759681 0.053685 0.818105 0.123267
H60   H     H_    0.531299 0.328544 0.942650 0.081330
H61   H     H_    0.974388 0.156877 0.170726 0.063306
H62   H     H_    0.012579 0.858564 0.683533 0.069751
H63   H     H_    0.473917 0.656930 0.169616 0.063387
H64   H     H_    0.512518 0.358540 0.683894 0.069690
H65   H     H_    0.829753 0.252215 0.434534 0.097005
H66   H     H_    0.828937 0.747298 0.936845 0.092227
H67   H     H_    0.329675 0.752265 0.434646 0.096938
H68   H     H_    0.328946 0.247306 0.936829 0.092247
H69   H     H_    0.793096 0.344193 0.998227 0.107710
H70   H     H_    0.214872 0.386073 0.257558 0.065871
H71   H     H_    0.794043 0.656517 0.497600 0.103470
H72   H     H_    0.293048 0.844228 0.998303 0.107647
H73   H     H_    0.294038 0.156520 0.497591 0.103528
H74   H     H_    0.168259 0.750187 0.755533 0.082303
H75   H     H_    0.167726 0.249457 0.257229 0.095285
H76   H     H_    0.668291 0.250164 0.755481 0.082310
H77   H     H_    0.667707 0.749440 0.257250 0.095320
H78   H     H_    0.934300 0.396033 0.345920 0.071078
H79   H     H_    0.932021 0.602218 0.850886 0.071223
H80   H     H_    0.434336 0.895995 0.345859 0.071077
H81   H     H_    0.215454 0.613660 0.757329 0.061833
H82   H     H_    0.432001 0.102205 0.850897 0.071239
H83   H     H_    0.063339 0.607440 0.851489 0.070196
H84   H     H_    0.062888 0.392229 0.353563 0.072498
H85   H     H_    0.563344 0.107440 0.851484 0.070211
H86   H     H_    0.562882 0.892224 0.353551 0.072474
H87   H     H_    0.951169 0.186618 0.431453 0.074183
H88   H     H_    0.984294 0.841681 0.099980 0.126789
H89   H     H_    0.450932 0.686934 0.430485 0.074068
H90   H     H_    0.484325 0.341687 0.100007 0.126693
H91   H     H_    0.006766 0.253298 0.216818 -0.176755
H92   H     H_    0.714852 0.886063 0.257537 0.065889
H93   H     H_    0.045628 0.767456 0.736267 -0.045493
H94   H     H_    0.506781 0.753175 0.216736 -0.176655
H95   H     H_    0.545628 0.267406 0.736433 -0.045460
H96   H     H_    0.054758 0.164436 0.166971 0.078966
H97   H     H_    0.067654 0.844159 0.546846 0.105403
H98   H     H_    0.554306 0.664169 0.165854 0.079044
H99   H     H_    0.567728 0.344162 0.547386 0.105186
H100  H     H_    0.150221 0.467448 0.320466 0.007330
H101  H     H_    0.150731 0.532441 0.820725 0.006972
H102  H     H_    0.650193 0.967439 0.320432 0.007322
H103  H     H_    0.715473 0.113653 0.757308 0.061831
H104  H     H_    0.650748 0.032439 0.820729 0.006966
H105  H     H_    0.137378 0.444984 0.115095 0.079402
H106  H     H_    0.137557 0.554980 0.615406 0.077400
H107  H     H_    0.637379 0.944981 0.115050 0.079465
H108  H     H_    0.637563 0.054978 0.615412 0.077360
H109  H     H_    0.095872 0.238488 0.604283 0.130384
H110  H     H_    0.068345 0.291262 0.703465 0.209337
H111  H     H_    0.066883 0.777432 0.232685 0.215256
H112  H     H_    0.066488 0.709585 0.188474 0.215374
H113  H     H_    0.595820 0.738212 0.603713 0.130491
H114  H     H_    0.248509 0.427125 0.111023 0.129839
H115  H     H_    0.568507 0.790942 0.703501 0.209400
H116  H     H_    0.566859 0.277394 0.232843 0.215233
H117  H     H_    0.566464 0.209550 0.188543 0.215409
H118  H     H_    0.742967 0.561654 0.750395 0.189098
H119  H     H_    0.714134 0.514721 0.871459 0.213091
H120  H     H_    0.740716 0.444597 0.253889 0.194577
H121  H     H_    0.711406 0.485466 0.391051 0.212780
H122  H     H_    0.242750 0.061146 0.750396 0.189409
H123  H     H_    0.213932 0.014553 0.872492 0.213058
H124  H     H_    0.241832 0.942196 0.253180 0.193658
N1    N     N_2   0.761208 0.250992 0.162951 -0.193298
N2    N     N_3   0.062116 0.749089 0.139098 -0.501192
N3    N     N_3   0.560810 0.749628 0.672426 -0.436342
N4    N     N_3   0.562107 0.249062 0.139217 -0.501195
N5    N     N_3   0.724870 0.556470 0.859845 -0.485795
N6    N     N_3   0.723990 0.444887 0.366287 -0.488673
N7    N     N_3   0.224731 0.056249 0.860041 -0.485775
N8    N     N_3   0.224674 0.943952 0.364742 -0.488970
N9    N     N_3   0.230102 0.646760 0.198354 -0.472699
N10   N     N_3   0.230395 0.353466 0.698324 -0.468281
N11   N     N_3   0.730114 0.146743 0.198337 -0.472689
N12   N     N_2   0.761270 0.749080 0.663917 -0.193964
N13   N     N_3   0.730379 0.853452 0.698339 -0.468290
N14   N     N_3   0.943998 0.252260 0.015298 -0.430764
N15   N     N_3   0.956960 0.753461 0.632390 -0.513993
N16   N     N_3   0.443950 0.752581 0.015266 -0.430771
N17   N     N_3   0.456956 0.253459 0.632549 -0.514153
N18   N     N_3   0.007071 0.148372 0.945701 -0.483641
N19   N     N_3   0.977773 0.849244 0.446241 -0.495352
N20   N     N_3   0.506489 0.648587 0.944442 -0.483734
N21   N     N_3   0.477855 0.349245 0.446340 -0.495101
N22   N     N_2   0.261135 0.751040 0.163045 -0.193309
N23   N     N_2   0.261279 0.249089 0.663905 -0.193984
N24   N     N_2   0.240778 0.750634 0.019953 -0.224892
N25   N     N_2   0.240802 0.249314 0.520907 -0.225768
N26   N     N_2   0.740814 0.250610 0.019887 -0.224893
N27   N     N_2   0.740787 0.749301 0.520922 -0.225763
N28   N     N_3   0.060799 0.249898 0.672801 -0.435856
O1    O     O_2   0.882020 0.421650 0.880110 -0.454690
O2    O     O_3   0.045760 0.740600 0.501562 -0.588123
O3    O     O_3   0.549184 0.759188 0.004225 -0.565484
O4    O     O_3   0.545742 0.240610 0.501668 -0.588166
O5    O     O_3   0.068720 0.527400 0.059520 -0.493997
O6    O     O_3   0.068720 0.472600 0.559520 -0.493616
O7    O     O_3   0.568720 0.027400 0.059520 -0.493992
O8    O     O_3   0.568720 0.972600 0.559520 -0.493617
O9    O     O_3   0.931280 0.472530 0.130180 -0.493298
O10   O     O_3   0.931280 0.527470 0.630180 -0.493035
O11   O     O_3   0.431280 0.972530 0.130180 -0.493078
O12   O     O_2   0.882020 0.578350 0.380110 -0.454467
O13   O     O_3   0.431280 0.027470 0.630180 -0.493351
O14   O     O_3   0.979610 0.373300 0.637850 -0.481514
O15   O     O_3   0.979610 0.626700 0.137850 -0.475188
O16   O     O_3   0.479610 0.873300 0.637850 -0.481415
O17   O     O_3   0.479610 0.126700 0.137850 -0.475215
O18   O     O_2   0.876196 0.333068 0.731543 -0.472673
O19   O     O_2   0.878389 0.668712 0.238892 -0.472057
O20   O     O_2   0.376235 0.833033 0.731646 -0.472666
O21   O     O_2   0.378380 0.168705 0.238884 -0.472001
O22   O     O_3   0.811929 0.482249 0.037143 -0.650413
O23   O     O_2   0.382020 0.921650 0.880110 -0.455191
O24   O     O_3   0.812389 0.517196 0.537239 -0.651603
O25   O     O_3   0.311933 0.982254 0.037231 -0.650269
O26   O     O_3   0.312386 0.017197 0.536977 -0.651581
O27   O     O_3   0.955685 0.259333 0.667834 -0.557030
O28   O     O_3   0.957428 0.741058 0.162907 -0.588067
O29   O     O_3   0.455744 0.759342 0.667757 -0.557095
O30   O     O_3   0.457407 0.241059 0.162891 -0.588050
O31   O     O_2   0.117830 0.421200 0.809460 -0.458262
O32   O     O_2   0.117830 0.578800 0.309460 -0.457463
O33   O     O_2   0.617830 0.921200 0.809460 -0.458241
O34   O     O_2   0.382020 0.078350 0.380110 -0.454064
O35   O     O_2   0.617830 0.078800 0.309460 -0.457467
O36   O     O_3   0.020150 0.373220 0.051650 -0.480816
O37   O     O_3   0.020150 0.626780 0.551650 -0.463305
O38   O     O_3   0.520150 0.873220 0.051650 -0.480983
O39   O     O_3   0.520150 0.126780 0.551650 -0.463309
O40   O     O_2   0.126352 0.337071 0.975224 -0.483689
O41   O     O_2   0.124705 0.664310 0.469571 -0.483617
O42   O     O_2   0.626337 0.837055 0.975245 -0.483684
O43   O     O_2   0.624689 0.164332 0.469477 -0.483625
O44   O     O_3   0.187032 0.482916 0.654635 -0.638990
O45   O     O_3   0.186937 0.516926 0.154886 -0.639658
O46   O     O_3   0.687035 0.982911 0.654623 -0.639006
O47   O     O_3   0.686933 0.016921 0.154899 -0.639659
O48   O     O_3   0.049204 0.259209 0.004275 -0.565348
P1    P     P_3+3 0.876190 0.439990 0.052900 0.977595
P2    P     P_3+3 0.075517 0.678436 0.581591 0.955602
P3    P     P_3+3 0.576185 0.822200 0.083613 0.964238
P4    P     P_3+3 0.575519 0.178435 0.581578 0.955603
P5    P     P_3+3 0.923544 0.677587 0.111446 0.969020
P6    P     P_3+3 0.923199 0.322735 0.609734 0.972160
P7    P     P_3+3 0.423536 0.177581 0.111442 0.969121
P8    P     P_3+3 0.423208 0.822730 0.609740 0.971992
P9    P     P_3+3 0.876190 0.560010 0.552900 0.981796
P10   P     P_3+3 0.376190 0.939990 0.052900 0.977423
P11   P     P_3+3 0.376190 0.060010 0.552900 0.981815
P12   P     P_3+3 0.123690 0.439530 0.636710 0.972477
P13   P     P_3+3 0.123690 0.560470 0.136710 0.973447
P14   P     P_3+3 0.623690 0.939530 0.636710 0.972535
P15   P     P_3+3 0.623690 0.060470 0.136710 0.973449
P16   P     P_3+3 0.076206 0.322222 0.083618 0.964385

loop_
_geom_bond_atom_site_label_1
_geom_bond_atom_site_label_2
_ccdc_geom_bond_type
C66   H43   S    
H122  N7    S    
C1    H52   S    
C68   N6    S    
C61   H103  S    
C52   H64   S    
H123  N7    S    
C42   H94   S    
N12   N27   D    
C55   H107  S    
C12   H53   S    
Ba4   P11   S    
O26   P11   S    
O1    P1    D    
Ba3   O8    S    
C23   H89   S    
C11   H67   S    
H25   N19   S    
H18   N16   S    
H20   N17   S    
Ba3   P14   S    
Ba1   O36   S    
C62   C66   S    
C3    C7    A    
C14   P6    S    
O11   P10   S    
C45   P1    S    
C55   C60   S    
H116  N4    S    
C9    C14   A    
Ba3   O38   S    
O22   P1    S    
C4    C78   A    
H27   N20   S    
C74   O30   S    
C45   C80   A    
Ba2   O9    S    
C38   C47   A    
Ba1   Ba2   S    
C35   H86   S    
C78   P11   S    
C33   H85   S    
C61   H59   S    
C37   P16   S    
C69   H41   S    
C39   C48   A    
C34   H90   S    
Ba3   O13   S    
C4    H73   S    
C40   O48   S    
H120  N6    S    
C47   H76   S    
C32   H84   S    
C23   H58   S    
C42   N16   S    
H4    N9    S    
C55   H102  S    
C63   C68   S    
C62   H34   S    
C33   C38   A    
H15   N15   S    
Ba2   O12   S    
C20   C25   A    
O33   P14   D    
C63   H31   S    
C59   H37   S    
O34   P11   D    
N1    N26   D    
C53   O45   S    
C40   C49   S    
O44   P12   S    
C3    H72   S    
C60   H48   S    
O23   P10   D    
C5    N1    S    
C14   C75   A    
H23   N19   S    
C42   C51   S    
C54   H106  S    
O29   P8    S    
C31   H83   S    
H3    N8    S    
C40   H91   S    
C21   N13   S    
O30   P7    S    
C17   P7    S    
Ba4   P15   S    
C19   C28   A    
C60   H92   S    
C62   H30   S    
C74   H51   S    
O36   P16   S    
H109  N28   S    
C2    H71   S    
O2    P2    S    
C41   H93   S    
C48   H77   S    
C50   H62   S    
H112  N2    S    
Ba4   O35   S    
C72   O28   S    
C19   N10   S    
H124  N8    S    
Ba1   O6    S    
O25   P10   S    
C68   H40   S    
C54   H101  S    
C30   N27   S    
O37   P2    S    
Ba4   O39   S    
Ba2   P9    S    
C32   C37   A    
O17   P7    S    
C7    C11   A    
Ba4   O17   S    
O39   P4    S    
C66   H39   S    
C49   H61   S    
C64   O25   S    
O40   P16   D    
C71   H47   S    
C39   P3    S    
C28   N25   S    
H10   N13   S    
Ba4   O34   S    
Ba1   P1    S    
O13   P11   S    
C58   H1    S    
C71   O27   S    
C23   H54   S    
C18   C27   A    
O9    P1    S    
C16   P8    S    
C54   C59   S    
C2    C56   A    
C53   C58   S    
O3    P3    S    
Ba3   O16   S    
C58   H114  S    
H111  N2    S    
O42   P3    D    
O45   P13   S    
Ba4   O7    S    
Ba1   O14   S    
C26   P14   S    
O5    P13   S    
C34   C74   S    
H16   N15   S    
C23   C73   S    
C64   C69   S    
H21   N18   S    
C44   H74   S    
O48   P16   S    
C57   H104  S    
C13   C17   A    
H28   N21   S    
C45   C75   A    
C22   P13   S    
C11   C16   A    
O16   P8    S    
C67   P10   S    
C41   N15   S    
C51   N20   S    
C1    C71   S    
H8    N11   S    
C43   H95   S    
Ba1   O31   S    
O43   P4    D    
Ba4   O11   S    
C53   H105  S    
O32   P13   D    
H113  N3    S    
O47   P15   S    
C49   N18   S    
C57   H108  S    
C80   H69   S    
C12   H88   S    
O8    P14   S    
C51   H63   S    
C56   P9    S    
C43   N17   S    
C4    C8    A    
Ba2   O32   S    
C27   N24   S    
C10   H66   S    
H22   N18   S    
C1    H87   S    
C50   H97   S    
C71   N28   S    
N23   N25   D    
C61   H24   S    
H11   N13   S    
C42   O3    S    
N22   N24   D    
C29   C47   A    
Ba2   O6    S    
C28   C46   A    
C65   O26   S    
C18   C22   A    
Ba1   O5    S    
C64   H32   S    
H17   N16   S    
C60   H13   S    
C18   N9    S    
C54   O44   S    
H121  N6    S    
C7    N22   S    
H12   N14   S    
C27   C44   A    
C70   H46   S    
C59   H2    S    
C6    C10   A    
O15   P5    S    
O27   P6    S    
C13   H68   S    
C19   C24   A    
C73   H50   S    
C24   P12   S    
C75   H78   S    
Ba3   Ba4   S    
C49   H96   S    
C74   N4    S    
C37   C46   A    
O20   P8    D    
Ba4   O8    S    
O21   P7    D    
C1    H56   S    
C6    N12   S    
C34   H55   S    
C72   N2    S    
C21   C26   A    
C36   C44   A    
O46   P14   S    
C5    C9    A    
C56   C76   A    
O4    P4    S    
Ba1   P12   S    
C70   N8    S    
C29   N26   S    
C12   C72   S    
C66   N5    S    
C34   H60   S    
C10   C15   A    
H119  N5    S    
C63   O24   S    
Ba3   P10   S    
H110  N28   S    
C62   O22   S    
O14   P6    S    
C41   C50   S    
C2    C6    A    
C76   H79   S    
C35   C39   A    
C72   H49   S    
H29   N21   S    
C55   O47   S    
C41   O2    S    
C52   H99   S    
C46   H75   S    
H19   N17   S    
O41   P2    D    
Ba3   O7    S    
O10   P9    S    
C30   C48   A    
C20   C29   A    
Ba3   O33   S    
H9    N11   S    
Ba1   O1    S    
C57   O46   S    
H7    N10   S    
C31   C36   A    
O35   P15   D    
O19   P5    D    
H117  N4    S    
H26   N20   S    
Ba2   O15   S    
C25   P15   S    
C8    C13   A    
C3    C67   A    
C16   C77   A    
C70   H42   S    
C65   H38   S    
C69   H45   S    
Ba3   O23   S    
C79   H82   S    
H14   N14   S    
C65   H33   S    
C77   H80   S    
C51   H98   S    
C73   O29   S    
C52   N21   S    
C12   H57   S    
H115  N3    S    
O28   P5    S    
C8    N23   S    
H118  N5    S    
C15   C76   A    
Ba2   O5    S    
C38   P4    S    
C50   N19   S    
H6    N10   S    
O6    P12   S    
O31   P12   D    
C73   N3    S    
C5    C80   A    
C9    H65   S    
C43   O4    S    
C20   N11   S    
C57   C61   S    
C22   C31   A    
C59   H81   S    
C40   N14   S    
O24   P9    S    
C24   C32   A    
C64   H36   S    
O7    P15   S    
C78   C79   A    
C15   P5    S    
H5    N9    S    
C25   C33   A    
C17   C79   A    
C68   H44   S    
C65   C70   S    
C69   N7    S    
C58   H70   S    
O38   P3    S    
Ba2   P13   S    
C67   C77   A    
Ba1   O10   S    
O18   P6    D    
C63   H35   S    
O12   P9    D    
C53   H100  S    
C21   C30   A    
C36   P2    S    
C26   C35   A    
C43   C52   S    
Ba2   O37   S    
