data_mof_unit_pretest_752.cif
_audit_creation_date              2012-12-10T17:21:42-0500
_audit_creation_method            fapswitch 2.2
_symmetry_space_group_name_H-M    P1
_symmetry_Int_Tables_number       1
_space_group_crystal_system       triclinic
_cell_length_a                    10.734326
_cell_length_b                    10.784928
_cell_length_c                    9.60852
_cell_angle_alpha                 90.11017
_cell_angle_beta                  89.96264
_cell_angle_gamma                 92.37048
_cell_volume                      1111.41398767

loop_
_atom_site_label
_atom_site_type_symbol
_atom_type_description
_atom_site_fract_x
_atom_site_fract_y
_atom_site_fract_z
_atom_type_partial_charge
C1    C     C_R   0.495597 0.262652 0.499919 0.789089
C2    C     C_3   0.877988 0.499550 0.498950 0.167841
C3    C     C_3   0.932750 0.616424 0.574797 -0.396388
C4    C     C_3   0.928711 0.499700 0.347344 -0.370778
C5    C     C_R   0.301405 0.121956 0.653494 -0.197594
C6    C     C_R   0.212101 0.053877 0.730004 -0.146085
C7    C     C_R   0.214015 0.925122 0.733275 -0.141492
C8    C     C_R   0.304812 0.863730 0.659394 -0.191467
C9    C     C_R   0.396818 0.930692 0.581360 0.105095
C10   C     C_R   0.395735 0.061787 0.579519 0.104284
C11   C     C_R   0.486655 0.128557 0.499671 -0.105500
C12   C     C_R   0.259926 0.499488 0.499804 0.733126
C13   C     C_R   0.571701 0.066861 0.417515 -0.203052
C14   C     C_R   0.571830 0.938955 0.417871 -0.210105
C15   C     C_R   0.487412 0.870693 0.501023 -0.094944
C16   C     C_R   0.665873 0.664318 0.144025 -0.153015
C17   C     C_R   0.747183 0.744404 0.072019 -0.223023
C18   C     C_R   0.747043 0.744574 0.928617 -0.210776
C19   C     C_R   0.665582 0.664649 0.856367 -0.144104
C20   C     C_R   0.581422 0.580863 0.925343 0.210012
C21   C     C_R   0.581486 0.580747 0.074839 0.215543
C22   C     C_R   0.422273 0.423339 0.073748 -0.065239
C23   C     C_R   0.495882 0.737123 0.500264 0.768277
C24   C     C_R   0.422320 0.423357 0.925918 -0.063103
C25   C     C_R   0.739971 0.499853 0.499753 0.735305
C26   C     C_3   0.066766 0.382483 0.574558 -0.396147
C27   C     C_3   0.922899 0.382323 0.573994 -0.363351
C28   C     C_3   0.076445 0.616844 0.573559 -0.379976
C29   C     C_3   0.071315 0.498577 0.347339 -0.368400
C30   C     C_3   0.121737 0.499314 0.498950 0.170133
Cu1   Cu    Cu3+1 0.499990 0.499990 0.640660 0.918361
Cu2   Cu    Cu3+1 0.500010 0.500010 0.359340 0.923678
H1    H     H_    0.100658 0.380435 0.683961 0.164303
H2    H     H_    0.899031 0.583694 0.291194 0.166688
H3    H     H_    0.113654 0.701468 0.519066 0.154327
H4    H     H_    0.900729 0.701793 0.523238 0.141122
H5    H     H_    0.640313 0.118242 0.355149 0.147803
H6    H     H_    0.293712 0.221458 0.650862 0.133564
H7    H     H_    0.140365 0.101230 0.785798 0.125526
H8    H     H_    0.143834 0.872385 0.791782 0.128115
H9    H     H_    0.640386 0.893002 0.355492 0.137437
H10   H     H_    0.358488 0.360467 0.128744 0.134105
H11   H     H_    0.098131 0.297159 0.522003 0.149570
H12   H     H_    0.673607 0.672195 0.253680 0.190774
H13   H     H_    0.810722 0.806935 0.128269 0.139364
H14   H     H_    0.810501 0.807222 0.872579 0.141993
H15   H     H_    0.358559 0.360493 0.870721 0.131299
H16   H     H_    0.888129 0.379563 0.683156 0.174339
H17   H     H_    0.111379 0.620564 0.682578 0.166684
H18   H     H_    0.899538 0.618022 0.684464 0.170780
H19   H     H_    0.109443 0.581304 0.289814 0.173017
H20   H     H_    0.101384 0.414514 0.291084 0.162910
H21   H     H_    0.890533 0.416890 0.289728 0.172193
N1    N     N_R   0.501200 0.501210 0.147910 -0.198491
N2    N     N_R   0.501250 0.501290 0.852040 -0.199139
O1    O     O_R   0.499990 0.319640 0.618810 -0.575260
O2    O     O_R   0.500000 0.319660 0.381240 -0.573810
O3    O     O_R   0.317680 0.499970 0.618790 -0.596592
O4    O     O_R   0.317700 0.499990 0.381210 -0.584053
O5    O     O_R   0.500000 0.680340 0.618760 -0.600295
O6    O     O_R   0.500010 0.680360 0.381190 -0.587284
O7    O     O_R   0.682300 0.500010 0.618790 -0.598746
O8    O     O_R   0.682320 0.500030 0.381210 -0.604370
H22   H     H_    0.300160 0.763724 0.662462 0.152871
H23   H     H_    0.672957 0.672824 0.746714 0.195503
H24   H     H_    0.884803 0.297258 0.520627 0.147549

loop_
_geom_bond_atom_site_label_1
_geom_bond_atom_site_label_2
_ccdc_geom_bond_type
C27   H16   S    
Cu1   O5    S    
C2    C4    S    
C7    H8    S    
C26   C30   S    
C16   C21   A    
C1    O2    A    
Cu1   O1    S    
C28   H17   S    
C16   H12   S    
C26   H1    S    
C13   H5    S    
C4    C29   S    
C1    C11   S    
C6    C7    A    
C21   N1    A    
C2    C27   S    
C12   O3    A    
C19   C20   A    
C15   C23   S    
C17   C18   A    
C9    C15   A    
C5    C10   A    
C22   N1    A    
C27   H24   S    
C22   H10   S    
C5    H6    S    
C24   N2    A    
C11   C13   A    
Cu1   O7    S    
C26   C27   S    
C29   C30   S    
Cu2   O2    S    
C8    H22   S    
C20   N2    A    
C5    C6    A    
C3    H4    S    
Cu1   O3    S    
C28   C30   S    
C3    C28   S    
C12   O4    A    
C3    H18   S    
C17   H13   S    
C26   H11   S    
C19   H23   S    
C2    C25   S    
C2    C3    S    
C25   O7    A    
C14   H9    S    
C4    H2    S    
C29   H19   S    
C23   O5    A    
C4    H21   S    
C22   C24   A    
C7    C8    A    
C10   C11   A    
C9    C10   A    
C18   H14   S    
C23   O6    A    
C20   C21   A    
C28   H3    S    
C18   C19   A    
C25   O8    A    
Cu2   N1    S    
C6    H7    S    
C16   C17   A    
Cu2   O4    S    
Cu1   N2    S    
C13   C14   A    
C24   H15   S    
C12   C30   S    
C1    O1    A    
Cu1   Cu2   S    
Cu2   O6    S    
C14   C15   A    
Cu2   O8    S    
C8    C9    A    
C29   H20   S    
