data_mof_unit_pretest_1155.cif
_audit_creation_date              2013-03-05T15:41:40-0500
_audit_creation_method            fapswitch 2.2
_symmetry_space_group_name_H-M    P1
_symmetry_Int_Tables_number       1
_space_group_crystal_system       triclinic
_cell_length_a                    17.226927
_cell_length_b                    8.687658
_cell_length_c                    7.529869
_cell_angle_alpha                 103.262238
_cell_angle_beta                  91.801144
_cell_angle_gamma                 94.289249
_cell_volume                      1092.434087

loop_
_atom_site_label
_atom_site_type_symbol
_atom_site_description
_atom_site_fract_x
_atom_site_fract_y
_atom_site_fract_z
_atom_type_partial_charge
O1    O     O_R   0.505650 0.286040 0.618880 -0.564401
O2    O     O_R   0.494350 0.713960 0.381120 -0.564389
O3    O     O_R   0.490960 0.256910 0.309800 -0.572912
O4    O     O_R   0.509040 0.743090 0.690200 -0.572869
C1    C     C_R   0.497087 0.199777 0.453490 0.857426
C2    C     C_R   0.502908 0.800223 0.546511 0.857421
O5    O     O_R   0.394600 0.516230 0.672450 -0.560925
O6    O     O_R   0.605400 0.483770 0.327550 -0.560944
O7    O     O_R   0.379910 0.487100 0.363380 -0.571014
O8    O     O_R   0.620090 0.512900 0.636620 -0.571052
C3    C     C_R   0.351181 0.505175 0.523459 0.809581
C4    C     C_R   0.648819 0.494822 0.476541 0.809589
Cu1   Cu    Cu3+1 0.508700 0.517250 0.683000 1.106627
Cu2   Cu    Cu3+1 0.491300 0.482750 0.317000 1.106617
C5    C     C_R   0.267213 0.520828 0.531654 -0.096942
C6    C     C_R   0.732785 0.479158 0.468345 -0.096934
C7    C     C_R   0.221677 0.490073 0.367336 -0.222876
C8    C     C_R   0.778319 0.509876 0.632665 -0.222905
C9    C     C_R   0.142866 0.514985 0.366476 0.328518
C10   C     C_R   0.857129 0.484963 0.633520 0.328537
C11   C     C_R   0.107927 0.562218 0.535209 0.011238
C12   C     C_R   0.892069 0.437751 0.464784 0.011224
C13   C     C_R   0.153482 0.597500 0.699125 -0.110292
C14   C     C_R   0.846516 0.402499 0.300867 -0.110292
C15   C     C_R   0.232947 0.577971 0.697475 -0.123222
C16   C     C_R   0.767052 0.422041 0.302519 -0.123224
C17   C     C_2   0.023462 0.562421 0.545729 -0.060430
C18   C     C_2   0.976534 0.437543 0.454267 -0.060427
H1    H     H_    0.247766 0.450773 0.237770 0.235506
H2    H     H_    0.752228 0.549150 0.762235 0.235475
H3    H     H_    0.732687 0.391393 0.174862 0.205531
H4    H     H_    0.267314 0.608653 0.825128 0.205552
H5    H     H_    0.000028 0.338804 0.361640 0.175163
H6    H     H_    0.999967 0.661159 0.638356 0.175160
H7    H     H_    0.127045 0.636462 0.828767 0.215043
H8    H     H_    0.872954 0.363554 0.171224 0.215065
C19   C     C_2   0.494167 0.031298 0.428322 -0.298251
C20   C     C_2   0.505820 0.968702 0.571682 -0.298282
N1    N     N_2   0.478180 0.456750 0.041980 0.020145
N2    N     N_2   0.521820 0.543250 0.958020 0.020165
N3    N     N_R   0.899856 0.502490 0.805447 0.108733
O9    O     O_R   0.880415 0.603013 0.950295 -0.325118
O10   O     O_R   0.951695 0.404774 0.823172 -0.306576
N4    N     N_R   0.100140 0.497442 0.194545 0.108740
O11   O     O_R   0.048301 0.595154 0.176807 -0.306576
O12   O     O_R   0.119584 0.396915 0.049704 -0.325094
H9    H     H_    0.481755 0.958517 0.290972 0.210431
H10   H     H_    0.518228 0.041483 0.709034 0.210399
N5    N     N_R   0.412132 0.374292 0.946407 0.263435
O13   O     O_R   0.412219 0.221916 0.883631 -0.360949
O14   O     O_R   0.345411 0.432782 0.978994 -0.373458
N6    N     N_R   0.587833 0.625827 0.053637 0.263430
O15   O     O_R   0.587693 0.778214 0.116255 -0.360972
O16   O     O_R   0.654582 0.567422 0.021167 -0.373425

loop_
_geom_bond_atom_site_label_1
_geom_bond_atom_site_label_2
_geom_bond_distance
_ccdc_geom_bond_type
O7    Cu2   1.962783 S    
C2    C20   1.428971 S    
C19   C20   1.331680 D    
C8    H2    1.080788 S    
C1    C19   1.428967 S    
C19   H9    1.086727 S    
C7    H1    1.080776 S    
N3    O9    1.301580 A    
C20   H10   1.086732 S    
O6    C4    1.309345 A    
C15   H4    1.080999 S    
C13   C15   1.392043 A    
C10   N3    1.440067 S    
C11   C17   1.459814 S    
C16   H3    1.081007 S    
C12   C18   1.459812 S    
Cu1   Cu2   2.707488 S    
N6    O15   1.299674 A    
O5    C3    1.309345 A    
N3    O10   1.301491 A    
O7    C3    1.298000 A    
C14   H8    1.083661 S    
O3    Cu2   1.949861 S    
O8    C4    1.297997 A    
O1    C1    1.295389 A    
C6    C8    1.404853 A    
N1    N5    1.384101 S    
C14   C16   1.392041 A    
C18   H5    1.086871 S    
C8    C10   1.390747 A    
C11   C13   1.400987 A    
C17   H6    1.086874 S    
C6    C16   1.399890 A    
C4    C6    1.464873 S    
O2    Cu2   1.951483 S    
C13   H7    1.083662 S    
C12   C14   1.400987 A    
C5    C15   1.399890 A    
O1    Cu1   1.951483 S    
C10   C12   1.410936 A    
O3    C1    1.294300 A    
O5    Cu1   1.963973 S    
C9    N4    1.440069 S    
O4    C2    1.294298 A    
N5    O13   1.299652 A    
N5    O14   1.299009 A    
N1    N2    1.301132 D    
C5    C7    1.404848 A    
C7    C9    1.390748 A    
Cu1   N2    2.034430 S    
O6    Cu2   1.963977 S    
N4    O12   1.301576 A    
C9    C11   1.410939 A    
Cu2   N1    2.034430 S    
N2    N6    1.384121 S    
C3    C5    1.464877 S    
N4    O11   1.301492 A    
O2    C2    1.295394 A    
O4    Cu1   1.949861 S    
N6    O16   1.299022 A    
C17   C18   1.340098 D    
O8    Cu1   1.962783 S    
