data_mof_unit_pretest_1093.cif
_audit_creation_date              2012-12-11T14:42:08-0500
_audit_creation_method            fapswitch 2.2
_symmetry_space_group_name_H-M    P1
_symmetry_Int_Tables_number       1
_space_group_crystal_system       triclinic
_cell_length_a                    18.75927
_cell_length_b                    11.087765
_cell_length_c                    18.805435
_cell_angle_alpha                 90.291244
_cell_angle_beta                  90.925843
_cell_angle_gamma                 89.812513
_cell_volume                      3910.91886981

loop_
_atom_site_label
_atom_site_type_symbol
_atom_type_description
_atom_site_fract_x
_atom_site_fract_y
_atom_site_fract_z
_atom_type_partial_charge
C1    C     C_R   0.729696 0.949814 0.850856 0.558319
C2    C     C_R   0.270237 0.949428 0.149239 0.561393
C3    C     C_R   0.229697 0.449814 0.850856 0.558319
C4    C     C_R   0.770238 0.449428 0.149239 0.561392
C5    C     C_R   0.682951 0.423483 0.048945 -0.170118
C6    C     C_R   0.316842 0.422842 0.951289 -0.171215
C7    C     C_R   0.182950 0.923483 0.048945 -0.170116
C8    C     C_R   0.816841 0.922844 0.951290 -0.171217
C9    C     C_R   0.743746 0.385140 0.085419 0.006837
C10   C     C_R   0.255933 0.385657 0.914662 0.005913
C11   C     C_R   0.243744 0.885139 0.085419 0.006838
C12   C     C_R   0.755933 0.885658 0.914662 0.005912
C13   C     C_R   0.786218 0.296181 0.054305 0.139953
C14   C     C_R   0.213164 0.297598 0.945517 0.140802
C15   C     C_R   0.286214 0.796178 0.054307 0.139960
C16   C     C_R   0.713163 0.797599 0.945518 0.140802
C17   C     C_R   0.784359 0.281288 0.980671 -0.041132
C18   C     C_R   0.215136 0.282758 0.019092 -0.041240
C19   C     C_R   0.284357 0.781285 0.980673 -0.041134
C20   C     C_R   0.715135 0.782760 0.019092 -0.041238
C21   C     C_R   0.727253 0.332255 0.939537 -0.044996
C22   C     C_R   0.272437 0.332636 0.060406 -0.044060
C23   C     C_R   0.227253 0.832255 0.939538 -0.044998
C24   C     C_R   0.772437 0.832637 0.060407 -0.044061
C25   C     C_R   0.452713 0.232145 0.546721 -0.084848
C26   C     C_R   0.443022 0.238133 0.474451 -0.070255
C27   C     C_R   0.952700 0.732096 0.546721 -0.084835
C28   C     C_R   0.943005 0.738075 0.474452 -0.070225
C29   C     C_R   0.486690 0.171247 0.429071 0.073056
C30   C     C_R   0.507102 0.159878 0.573218 0.050160
C31   C     C_R   0.986693 0.671242 0.429070 0.073088
C32   C     C_R   0.007112 0.659882 0.573215 0.050188
C33   C     C_R   0.539038 0.094096 0.455382 -0.085970
C34   C     C_R   0.549432 0.088410 0.528122 -0.088957
C35   C     C_R   0.039065 0.594144 0.455377 -0.085964
C36   C     C_R   0.049462 0.588464 0.528117 -0.088944
C37   C     C_R   0.802291 0.355487 0.538045 -0.101693
C38   C     C_R   0.229923 0.276268 0.480286 -0.152603
C39   C     C_R   0.302292 0.855495 0.538046 -0.101683
C40   C     C_R   0.729914 0.776278 0.480283 -0.152621
C41   C     C_R   0.815156 0.382999 0.469222 0.141804
C42   C     C_R   0.224827 0.299040 0.552575 0.123868
C43   C     C_R   0.315156 0.882998 0.469222 0.141816
C44   C     C_R   0.724819 0.799048 0.552572 0.123852
C45   C     C_R   0.529732 0.177450 0.850547 0.530134
C46   C     C_R   0.470248 0.176906 0.149423 0.532713
C47   C     C_R   0.029731 0.677449 0.850547 0.530133
C48   C     C_R   0.970248 0.676907 0.149423 0.532712
C49   C     C_R   0.757412 0.414415 0.423139 -0.002969
C50   C     C_R   0.256604 0.402491 0.581985 -0.016073
C51   C     C_R   0.257412 0.914413 0.423139 -0.002966
C52   C     C_R   0.756603 0.902490 0.581985 -0.016078
C53   C     C_R   0.687474 0.417923 0.448386 0.121418
C54   C     C_R   0.303270 0.471431 0.540204 0.109415
C55   C     C_R   0.187474 0.917923 0.448386 0.121412
C56   C     C_R   0.803276 0.971422 0.540207 0.109434
C57   C     C_R   0.675986 0.397693 0.520560 0.163849
C58   C     C_R   0.302318 0.456429 0.466408 0.148064
C59   C     C_R   0.175986 0.897693 0.520560 0.163838
C60   C     C_R   0.802327 0.956420 0.466411 0.148086
C61   C     C_R   0.733885 0.360346 0.565022 -0.030588
C62   C     C_R   0.265690 0.356664 0.436202 -0.061283
C63   C     C_R   0.233885 0.860350 0.565022 -0.030582
C64   C     C_R   0.765689 0.856668 0.436201 -0.061291
C65   C     C_R   0.724011 0.312576 0.860686 0.547273
C66   C     C_R   0.275878 0.312752 0.139198 0.545792
C67   C     C_R   0.224011 0.812576 0.860686 0.547274
C68   C     C_R   0.775877 0.812753 0.139198 0.545790
C69   C     C_R   0.730047 0.952110 0.649068 0.569673
C70   C     C_R   0.273090 0.955902 0.352619 0.582257
C71   C     C_R   0.230047 0.452110 0.649068 0.569673
C72   C     C_R   0.773091 0.455903 0.352619 0.582255
C73   C     C_R   0.530333 0.175149 0.644909 0.534891
C74   C     C_R   0.469650 0.176821 0.355334 0.543415
C75   C     C_R   0.030334 0.675149 0.644908 0.534884
C76   C     C_R   0.969653 0.676820 0.355333 0.543412
C77   C     C_R   0.726359 0.318912 0.637974 0.566538
C78   C     C_R   0.272844 0.320617 0.361814 0.546643
C79   C     C_R   0.226359 0.818914 0.637974 0.566537
C80   C     C_R   0.772843 0.820620 0.361814 0.546642
C81   C     C_2   0.498074 0.166530 0.921349 -0.130980
C82   C     C_2   0.501663 0.165192 0.078494 -0.129887
C83   C     C_2   0.998072 0.666529 0.921348 -0.130977
C84   C     C_2   0.001658 0.665196 0.078492 -0.129889
C85   C     C_2   0.495518 0.063073 0.038689 -0.077115
C86   C     C_2   0.502676 0.063489 0.960041 -0.075340
C87   C     C_2   0.995522 0.563073 0.038690 -0.077112
C88   C     C_2   0.002674 0.563488 0.960040 -0.075337
C89   C     C_R   0.672329 0.393513 0.977257 -0.048698
C90   C     C_R   0.327456 0.392829 0.022841 -0.046935
C91   C     C_R   0.172328 0.893514 0.977257 -0.048696
C92   C     C_R   0.827456 0.892830 0.022842 -0.046938
Cr1   Cr    Cr6+3 0.769270 0.163730 0.750710 1.097241
Cr2   Cr    Cr6+3 0.230730 0.163730 0.249290 1.098718
Cr3   Cr    Cr6+3 0.269270 0.663730 0.750710 1.097240
Cr4   Cr    Cr6+3 0.730730 0.663730 0.249290 1.098711
Cr5   Cr    Cr6+3 0.612620 0.009790 0.748780 1.114075
Cr6   Cr    Cr6+3 0.387380 0.009790 0.251220 1.127587
Cr7   Cr    Cr6+3 0.112620 0.509790 0.748780 1.114081
Cr8   Cr    Cr6+3 0.887380 0.509790 0.251220 1.127593
Cr9   Cr    Cr6+3 0.614160 0.322500 0.747710 1.150492
Cr10  Cr    Cr6+3 0.385840 0.322500 0.252290 1.146105
Cr11  Cr    Cr6+3 0.114160 0.822500 0.747710 1.150496
Cr12  Cr    Cr6+3 0.885840 0.822500 0.252290 1.146110
H1    H     H_    0.519649 0.248284 0.054718 0.112196
H2    H     H_    0.481123 0.250170 0.945949 0.110974
H3    H     H_    0.019629 0.748292 0.054712 0.112197
H4    H     H_    0.981120 0.750169 0.945947 0.110970
H5    H     H_    0.644021 0.476849 0.076669 0.172674
H6    H     H_    0.355994 0.475024 0.923725 0.170733
H7    H     H_    0.144019 0.976847 0.076669 0.172676
H8    H     H_    0.855993 0.975026 0.923726 0.170733
H9    H     H_    0.420735 0.287871 0.581455 0.159201
H10   H     H_    0.401886 0.295818 0.453375 0.140183
H11   H     H_    0.920705 0.787782 0.581458 0.159146
H12   H     H_    0.901849 0.795709 0.453378 0.140088
H13   H     H_    0.571734 0.040593 0.420133 0.150835
H14   H     H_    0.592868 0.033565 0.548868 0.145494
H15   H     H_    0.071776 0.540683 0.420126 0.150804
H16   H     H_    0.092912 0.533663 0.548862 0.145437
H17   H     H_    0.848019 0.332466 0.571114 0.226137
H18   H     H_    0.206203 0.194813 0.458450 0.186301
H19   H     H_    0.348020 0.832480 0.571116 0.226135
H20   H     H_    0.706189 0.694830 0.458445 0.186319
O1    O     O_R   0.784320 0.290430 0.830510 -0.483836
O2    O     O_R   0.215680 0.290430 0.169490 -0.484034
O3    O     O_R   0.284320 0.790430 0.830510 -0.483834
O4    O     O_R   0.715680 0.790430 0.169490 -0.484037
O5    O     O_R   0.554640 0.080370 0.673500 -0.505950
O6    O     O_R   0.445360 0.080370 0.326500 -0.482248
O7    O     O_R   0.054640 0.580370 0.673500 -0.505942
O8    O     O_R   0.945360 0.580370 0.326500 -0.482243
O9    O     O_R   0.543920 0.282180 0.666790 -0.463349
O10   O     O_R   0.456080 0.282180 0.333210 -0.471017
O11   O     O_R   0.043920 0.782180 0.666790 -0.463340
O12   O     O_R   0.956080 0.782180 0.333210 -0.470996
O13   O     O_R   0.679040 0.374160 0.674430 -0.418996
O14   O     O_R   0.320960 0.374160 0.325570 -0.437445
O15   O     O_R   0.179040 0.874160 0.674430 -0.418995
O16   O     O_R   0.820960 0.874160 0.325570 -0.437441
O17   O     O_3   0.665350 0.165340 0.749070 -0.338620
O18   O     O_3   0.334650 0.165340 0.250930 -0.342878
O19   O     O_3   0.165350 0.665340 0.749070 -0.338623
O20   O     O_3   0.834650 0.665340 0.250930 -0.342876
O21   O     O_R   0.762640 0.040960 0.825200 -0.526525
O22   O     O_R   0.237360 0.040960 0.174800 -0.522261
O23   O     O_R   0.262640 0.540960 0.825200 -0.526525
O24   O     O_R   0.737360 0.540960 0.174800 -0.522260
O25   O     O_R   0.667400 0.923970 0.829950 -0.448850
O26   O     O_R   0.332600 0.923970 0.170050 -0.452538
O27   O     O_R   0.167400 0.423970 0.829950 -0.448850
O28   O     O_R   0.832600 0.423970 0.170050 -0.452538
O29   O     O_R   0.553960 0.081340 0.821780 -0.489854
O30   O     O_R   0.446040 0.081340 0.178220 -0.491785
O31   O     O_R   0.053960 0.581340 0.821780 -0.489855
O32   O     O_R   0.946040 0.581340 0.178220 -0.491783
O33   O     O_R   0.543180 0.283240 0.826740 -0.496488
O34   O     O_R   0.456820 0.283240 0.173260 -0.489769
O35   O     O_R   0.043180 0.783240 0.826740 -0.496488
O36   O     O_R   0.956820 0.783240 0.173260 -0.489771
O37   O     O_R   0.678360 0.375140 0.822710 -0.446323
O38   O     O_R   0.321640 0.375140 0.177290 -0.445673
O39   O     O_R   0.178360 0.875140 0.822710 -0.446322
O40   O     O_R   0.821640 0.875140 0.177290 -0.445680
O41   O     O_R   0.785050 0.289380 0.670560 -0.486135
O42   O     O_R   0.214950 0.289380 0.329440 -0.474325
O43   O     O_R   0.285050 0.789380 0.670560 -0.486129
O44   O     O_R   0.714950 0.789380 0.329440 -0.474338
O45   O     O_R   0.763320 0.039990 0.676930 -0.484348
O46   O     O_R   0.236680 0.039990 0.323070 -0.492220
O47   O     O_R   0.263320 0.539990 0.676930 -0.484348
O48   O     O_R   0.736680 0.539990 0.323070 -0.492217
O49   O     O_R   0.668130 0.922920 0.670000 -0.457286
O50   O     O_R   0.331870 0.922920 0.330000 -0.439987
O51   O     O_R   0.168130 0.422920 0.670000 -0.457279
O52   O     O_R   0.831870 0.422920 0.330000 -0.439990
C93   C     C_1   0.486268 0.946444 0.072175 0.270320
N1    N     N_1   0.479649 0.853598 0.098925 -0.165645
C94   C     C_1   0.510571 0.946872 0.925299 0.272343
N2    N     N_1   0.516229 0.854160 0.897504 -0.166660
C95   C     C_1   0.986291 0.446443 0.072182 0.270328
N3    N     N_1   0.979689 0.353600 0.098939 -0.165648
C96   C     C_1   0.010570 0.446871 0.925298 0.272341
N4    N     N_1   0.016229 0.354160 0.897503 -0.166657
Br1   Br    Br    0.915653 0.375992 0.447513 -0.372463
Br2   Br    Br    0.180063 0.181160 0.610831 -0.360423
Br3   Br    Br    0.415653 0.875973 0.447511 -0.372470
Br4   Br    Br    0.680042 0.681180 0.610819 -0.360421
Br5   Br    Br    0.607001 0.445733 0.384464 -0.360937
Br6   Br    Br    0.376505 0.572750 0.582497 -0.359185
Br7   Br    Br    0.107001 0.945731 0.384464 -0.360924
Br8   Br    Br    0.876511 0.072738 0.582504 -0.359149
Br9   Br    Br    0.583202 0.438803 0.554844 -0.298871
Br10  Br    Br    0.350433 0.575765 0.409966 -0.300374
Br11  Br    Br    0.083200 0.938800 0.554843 -0.298840
Br12  Br    Br    0.850456 0.075746 0.409972 -0.300333
C97   C     C_1   0.605695 0.432719 0.945782 0.277701
N5    N     N_1   0.551792 0.466620 0.922524 -0.198371
C98   C     C_1   0.394270 0.430948 0.054310 0.277323
N6    N     N_1   0.448304 0.464170 0.077505 -0.197965
C99   C     C_1   0.105694 0.932720 0.945781 0.277704
N7    N     N_1   0.051792 0.966620 0.922523 -0.198371
C100  C     C_1   0.894270 0.930949 0.054310 0.277319
N8    N     N_1   0.948303 0.964171 0.077505 -0.197963
Br13  Br    Br    0.842136 0.188250 0.113070 -0.397836
Br14  Br    Br    0.156718 0.190125 0.886595 -0.393854
Br15  Br    Br    0.342119 0.688235 0.113075 -0.397834
Br16  Br    Br    0.656718 0.690125 0.886595 -0.393856
C101  C     C_1   0.846373 0.225677 0.949555 0.276487
N9    N     N_1   0.897016 0.184098 0.924941 -0.220771
C102  C     C_1   0.153200 0.227788 0.050030 0.275618
N10   N     N_1   0.102637 0.186661 0.074505 -0.219904
C103  C     C_1   0.346371 0.725675 0.949558 0.276486
N11   N     N_1   0.397015 0.684096 0.924945 -0.220774
C104  C     C_1   0.653198 0.727792 0.050031 0.275618
N12   N     N_1   0.602634 0.686667 0.074506 -0.219910

loop_
_geom_bond_atom_site_label_1
_geom_bond_atom_site_label_2
_ccdc_geom_bond_type
Cr2   O22   S    
C79   O15   A    
C87   C88   S    
C56   Br8   S    
C15   C19   A    
C58   C62   A    
C55   C59   A    
C64   C80   S    
C99   N7    T    
C14   C18   A    
C1    O21   A    
C35   C36   A    
C84   C87   D    
C15   Br15  S    
C104  N12   T    
C100  N8    T    
Cr11  O35   S    
Cr10  O34   S    
C32   C75   S    
C26   H10   S    
C76   O12   A    
C21   C89   A    
C95   N3    T    
Cr8   O28   S    
C71   O47   A    
C33   H13   S    
C48   O36   A    
Cr1   O45   S    
C31   C76   S    
C50   C54   A    
C47   O31   A    
C2    O26   A    
C32   C36   A    
Cr7   O19   S    
C56   C60   A    
C77   O13   A    
C38   C42   A    
C17   C101  S    
C39   C63   A    
C8    H8    S    
C85   C86   S    
Cr6   O50   S    
C75   O11   A    
C77   O41   A    
C46   O34   A    
C29   C33   A    
C84   H3    S    
C39   H19   S    
C83   H4    S    
C66   O38   A    
Cr10  O14   S    
C82   H1    S    
C23   C67   S    
Cr11  O11   S    
C22   C66   S    
C9    C13   A    
C52   C69   S    
C28   H12   S    
C46   C82   S    
C11   C15   A    
C27   H11   S    
C12   C16   A    
C61   C77   S    
C49   C72   S    
Cr7   O31   S    
Cr8   O52   S    
Cr12  O20   S    
Cr1   O21   S    
C8    C92   A    
C51   C70   S    
Cr5   O29   S    
C8    C12   A    
Cr12  O12   S    
C68   O4    A    
C81   C86   D    
Cr10  O38   S    
Cr3   O47   S    
C42   Br2   S    
Cr2   O2    S    
C83   C88   D    
C48   O32   A    
Cr9   O33   S    
C98   N6    T    
Cr6   O18   S    
C6    H6    S    
Cr2   O42   S    
C1    C12   S    
C69   O49   A    
Cr12  O36   S    
C46   O30   A    
C2    C11   S    
C24   C92   A    
C13   Br13  S    
C41   C49   A    
C75   O7    A    
C101  N9    T    
C68   O40   A    
C39   C43   A    
Cr4   O24   S    
C73   O5    A    
C78   O42   A    
Cr5   O49   S    
C30   C34   A    
C41   Br1   S    
Cr2   O18   S    
C20   C104  S    
C20   C24   A    
Cr3   O23   S    
C10   C14   A    
C30   C73   S    
C53   C57   A    
C19   C23   A    
C88   C96   S    
C47   O35   A    
C29   C74   S    
C59   Br11  S    
C25   C26   A    
C6    C90   A    
Cr7   O27   S    
C34   H14   S    
C58   Br10  S    
C17   C21   A    
C66   O2    A    
C57   Br9   S    
Cr11  O39   S    
C19   C103  S    
Cr12  O40   S    
C65   O1    A    
C7    C11   A    
C50   C71   S    
Cr10  O10   S    
C96   N4    T    
C5    C9    A    
C67   O3    A    
Cr4   O20   S    
Cr4   O4    S    
C48   C84   S    
C102  N10   T    
C43   Br3   S    
C16   C20   A    
C7    C91   A    
Cr6   O6    S    
Cr4   O44   S    
C33   C34   A    
C22   C90   A    
C45   O33   A    
C69   O45   A    
C4    O28   A    
C1    O25   A    
C70   O50   A    
Cr5   O17   S    
C38   H18   S    
C92   C100  S    
C42   C50   A    
C37   H17   S    
C25   H9    S    
C73   O9    A    
Cr6   O26   S    
C47   C83   S    
Cr2   O46   S    
C14   Br14  S    
Cr8   O20   S    
Cr11  O15   S    
C23   C91   A    
C45   O29   A    
Cr8   O32   S    
C72   O48   A    
C27   C28   A    
Cr1   O17   S    
C60   Br12  S    
C40   H20   S    
C54   C58   A    
C25   C30   A    
C81   H2    S    
Cr9   O13   S    
C54   Br6   S    
C21   C65   S    
C27   C32   A    
C18   C22   A    
Cr9   O17   S    
C62   C78   S    
C28   C31   A    
C45   C81   S    
Cr3   O19   S    
C91   C99   S    
C3    O27   A    
C16   Br16  S    
Cr3   O43   S    
C44   C52   A    
C87   C95   S    
C37   C61   A    
Cr8   O8    S    
C57   C61   A    
C63   C79   S    
Cr9   O9    S    
C2    O22   A    
C82   C85   D    
C89   C97   S    
C59   C63   A    
C40   C64   A    
C13   C17   A    
C60   C64   A    
C74   O6    A    
C18   C102  S    
C70   O46   A    
Cr5   O5    S    
C3    C10   S    
C80   O16   A    
C3    O23   A    
C78   O14   A    
Cr11  O19   S    
Cr6   O30   S    
C76   O8    A    
C43   C51   A    
C35   H15   S    
C5    H5    S    
C44   Br4   S    
C103  N11   T    
C71   O51   A    
C74   O10   A    
C31   C35   A    
Cr9   O37   S    
C86   C94   S    
C55   Br7   S    
C7    H7    S    
C51   C55   A    
C72   O52   A    
C37   C41   A    
C97   N5    T    
C36   H16   S    
Cr1   O1    S    
C49   C53   A    
C6    C10   A    
C24   C68   S    
Cr1   O41   S    
C94   N2    T    
C67   O39   A    
Cr3   O3    S    
C40   C44   A    
Cr7   O51   S    
C26   C29   A    
C85   C93   S    
C93   N1    T    
Cr4   O48   S    
C65   O37   A    
C90   C98   S    
Cr5   O25   S    
Cr10  O18   S    
Cr7   O7    S    
C79   O43   A    
C4    C9    S    
C53   Br5   S    
C80   O44   A    
C5    C89   A    
C52   C56   A    
Cr12  O16   S    
C38   C62   A    
C4    O24   A    
