data_mof_unit_pretest_522.cif
_audit_creation_date              2013-03-05T15:49:18-0500
_audit_creation_method            fapswitch 2.2
_symmetry_space_group_name_H-M    P1
_symmetry_Int_Tables_number       1
_space_group_crystal_system       triclinic
_cell_length_a                    20.595864
_cell_length_b                    22.770197
_cell_length_c                    6.939983
_cell_angle_alpha                 89.998476
_cell_angle_beta                  86.891465
_cell_angle_gamma                 90.0
_cell_volume                      3249.86798727

loop_
_atom_site_label
_atom_site_type_symbol
_atom_site_description
_atom_site_fract_x
_atom_site_fract_y
_atom_site_fract_z
_atom_type_partial_charge
O1    O     O_R   0.387100 0.552640 0.378490 -0.585238
O2    O     O_R   0.612900 0.052640 0.621510 -0.585251
O3    O     O_R   0.249610 0.559600 0.072250 -0.604644
O4    O     O_R   0.750390 0.059600 0.927750 -0.604620
O5    O     O_R   0.249120 0.447360 0.902040 -0.601744
O6    O     O_R   0.750880 0.947360 0.097960 -0.601745
C1    C     C_R   0.228029 0.574403 0.244523 0.935239
C2    C     C_R   0.771970 0.074404 0.755474 0.935250
O7    O     O_R   0.386610 0.559560 0.048860 -0.586703
O8    O     O_R   0.613390 0.059560 0.951140 -0.586689
O9    O     O_R   0.387100 0.447320 0.878470 -0.587966
O10   O     O_R   0.612900 0.947320 0.121530 -0.587968
C3    C     C_R   0.407854 0.574807 0.214248 0.927381
C4    C     C_R   0.592145 0.074806 0.785747 0.927391
O11   O     O_R   0.249120 0.552680 0.402050 -0.596420
O12   O     O_R   0.750880 0.052680 0.597950 -0.596425
O13   O     O_3   0.318110 0.463180 0.223790 -0.277273
O14   O     O_3   0.681890 0.963180 0.776210 -0.277281
V1    V     V_3+5 0.318110 0.506830 0.948930 1.170453
V2    V     V_3+5 0.681890 0.006830 0.051070 1.170476
O15   O     O_R   0.386610 0.440400 0.548840 -0.590058
O16   O     O_R   0.613390 0.940400 0.451160 -0.590068
C5    C     C_R   0.407996 0.425211 0.714214 0.923728
C6    C     C_R   0.592004 0.925210 0.285791 0.923734
O17   O     O_R   0.249610 0.440440 0.572240 -0.606242
O18   O     O_R   0.750390 0.940440 0.427760 -0.606241
C7    C     C_R   0.227120 0.426419 0.744450 0.922172
C8    C     C_R   0.772880 0.926419 0.255553 0.922176
V3    V     V_3+5 0.318110 0.493170 0.448930 1.167386
V4    V     V_3+5 0.681890 0.993170 0.551070 1.167386
O19   O     O_3   0.318110 0.536820 0.723940 -0.265861
O20   O     O_3   0.681890 0.036820 0.276060 -0.265846
C9    C     C_R   0.173510 0.383226 0.761240 -0.123628
C10   C     C_R   0.826489 0.883226 0.238768 -0.123625
C11   C     C_R   0.146431 0.360829 0.594713 -0.178639
C12   C     C_R   0.853581 0.860841 0.405299 -0.178629
C13   C     C_R   0.095425 0.320545 0.609631 -0.133881
C14   C     C_R   0.904586 0.820556 0.390384 -0.133879
C15   C     C_R   0.070120 0.302015 0.791797 0.242899
C16   C     C_R   0.929877 0.802013 0.208218 0.242912
C17   C     C_R   0.097849 0.323466 0.957961 -0.159449
C18   C     C_R   0.902134 0.823451 0.042051 -0.159450
C19   C     C_R   0.148807 0.363926 0.943183 -0.168114
C20   C     C_R   0.851177 0.863912 0.056826 -0.168115
C21   C     C_R   0.880220 0.201627 0.880475 0.072518
C22   C     C_R   0.119773 0.701623 0.119513 0.072630
C23   C     C_R   0.833161 0.157345 0.895600 -0.190302
C24   C     C_R   0.166832 0.657341 0.104387 -0.190134
C25   C     C_R   0.859006 0.128794 0.563959 -0.127959
C26   C     C_R   0.140994 0.628791 0.436038 -0.127934
C27   C     C_R   0.906661 0.172283 0.548714 -0.139050
C28   C     C_R   0.093340 0.672280 0.451284 -0.139062
C29   C     C_R   0.918709 0.208251 0.706752 0.173120
C30   C     C_R   0.081290 0.708248 0.293243 0.173160
C31   C     C_2   0.016098 0.259323 0.814027 -0.243112
C32   C     C_2   0.983897 0.759319 0.185989 -0.243125
C33   C     C_2   0.971219 0.252320 0.682320 -0.205795
C34   C     C_2   0.028782 0.752319 0.317679 -0.205793
C35   C     C_R   0.822468 0.120353 0.738367 -0.131052
C36   C     C_R   0.177529 0.620350 0.261625 -0.130878
H1    H     H_    0.164657 0.374300 0.452240 0.133019
H2    H     H_    0.835368 0.874323 0.547772 0.133014
H3    H     H_    0.803867 0.152617 0.029341 0.149841
H4    H     H_    0.196123 0.652613 0.970641 0.149752
H5    H     H_    0.851348 0.101334 0.439782 0.127765
H6    H     H_    0.148656 0.601331 0.560218 0.127735
H7    H     H_    0.974391 0.276923 0.548299 0.145118
H8    H     H_    0.025617 0.776925 0.451690 0.145130
H9    H     H_    0.079521 0.309344 0.099743 0.103249
H10   H     H_    0.920450 0.809318 0.900269 0.103247
H11   H     H_    0.168757 0.380044 0.074315 0.132997
H12   H     H_    0.831215 0.880020 0.925691 0.132997
H13   H     H_    0.012581 0.233369 0.945569 0.132411
H14   H     H_    0.987408 0.733362 0.054458 0.132412
H15   H     H_    0.076931 0.303396 0.478071 0.099053
H16   H     H_    0.923091 0.803417 0.521950 0.099049
H17   H     H_    0.935091 0.177241 0.413697 0.108527
H18   H     H_    0.064913 0.677239 0.586306 0.108521
C37   C     C_R   0.577132 0.362068 0.664915 -0.071650
C38   C     C_R   0.422876 0.862058 0.335373 -0.071497
H19   H     H_    0.534754 0.447405 0.637440 0.114102
H20   H     H_    0.465267 0.947383 0.363026 0.114127
H21   H     H_    0.624974 0.379357 0.626544 0.166836
H22   H     H_    0.375051 0.879341 0.373990 0.166923
C39   C     C_R   0.462082 0.382263 0.713235 -0.097993
C40   C     C_R   0.537917 0.882263 0.286797 -0.098013
C41   C     C_R   0.474914 0.095812 0.821475 -0.164083
C42   C     C_R   0.525085 0.595816 0.178580 -0.164079
C43   C     C_R   0.421689 0.133406 0.829135 -0.088416
C44   C     C_R   0.578309 0.633411 0.170936 -0.088437
C45   C     C_R   0.430017 0.193705 0.803547 -0.163613
C46   C     C_R   0.569978 0.693711 0.196479 -0.163623
C47   C     C_R   0.492626 0.218449 0.769045 0.096406
C48   C     C_R   0.507365 0.718456 0.230901 0.096439
C49   C     C_R   0.547182 0.179342 0.760041 0.053560
C50   C     C_R   0.452811 0.679349 0.239875 0.053534
C51   C     C_R   0.502625 0.280456 0.741875 0.066200
C52   C     C_R   0.497364 0.780461 0.258077 0.066177
C53   C     C_R   0.567215 0.301818 0.704493 -0.019086
C54   C     C_R   0.432776 0.801820 0.295538 -0.019036
C55   C     C_R   0.620601 0.262539 0.702043 0.331204
C56   C     C_R   0.379381 0.762547 0.297815 0.330983
C57   C     C_R   0.609887 0.202373 0.727038 -0.326136
C58   C     C_R   0.390103 0.702381 0.272772 -0.326214
C59   C     C_R   0.450675 0.322184 0.748864 -0.200991
C60   C     C_R   0.549314 0.822191 0.251029 -0.201021
C61   C     C_R   0.525348 0.401483 0.669061 -0.183395
C62   C     C_R   0.474663 0.901471 0.331222 -0.183441
C63   C     C_R   0.537832 0.117708 0.786918 -0.142902
C64   C     C_R   0.462165 0.617712 0.213064 -0.142913
H23   H     H_    0.400792 0.309567 0.779677 0.091784
H24   H     H_    0.599191 0.809579 0.220053 0.091803
H25   H     H_    0.466976 0.049161 0.842990 0.112694
H26   H     H_    0.533027 0.549164 0.157115 0.112683
H27   H     H_    0.386258 0.219635 0.811342 0.110077
H28   H     H_    0.613738 0.719640 0.188747 0.110072
H29   H     H_    0.373276 0.115615 0.855647 0.122185
H30   H     H_    0.626725 0.615620 0.144491 0.122172
H31   H     H_    0.651779 0.173558 0.723975 0.152923
H32   H     H_    0.348216 0.673562 0.275709 0.153077
N1    N     N_R   0.686625 0.282962 0.678745 0.234624
O21   O     O_R   0.707172 0.323574 0.792479 -0.397337
O22   O     O_R   0.729029 0.253443 0.571890 -0.392591
N2    N     N_R   0.313345 0.782972 0.320889 0.234711
O23   O     O_R   0.292939 0.823806 0.207722 -0.397465
O24   O     O_R   0.270805 0.753258 0.426685 -0.392768
C65   C     C_1   0.885336 0.241402 0.041121 0.089839
N3    N     N_1   0.889316 0.273321 0.169729 -0.058005
C66   C     C_1   0.114654 0.741398 0.958861 0.089680
N4    N     N_1   0.110669 0.773317 0.830250 -0.058066

loop_
_geom_bond_atom_site_label_1
_geom_bond_atom_site_label_2
_geom_bond_distance
_ccdc_geom_bond_type
C4    C63   1.484827 S    
C37   H21   1.080895 S    
H19   C61   1.083722 S    
O13   V3    1.705193 S    
O4    C2    1.297290 A    
V1    O19   1.704206 S    
C22   C66   1.444684 S    
C15   C17   1.402145 A    
C60   H24   1.077023 S    
C7    C9    1.478515 S    
O9    V1    2.004732 S    
C25   H5    1.083191 S    
C44   H30   1.082722 S    
C37   C53   1.411805 A    
C11   C13   1.394234 A    
O3    C1    1.297291 A    
C2    C35   1.475490 S    
C23   H3    1.084591 S    
C56   N2    1.438076 S    
C24   H4    1.084590 S    
C48   C52   1.437776 A    
O12   V4    2.002791 S    
C45   H27   1.076339 S    
C18   H10   1.083424 S    
C28   H18   1.083564 S    
O7    C3    1.297651 A    
C13   H15   1.081165 S    
C9    C11   1.405953 A    
O5    C7    1.297144 A    
O7    V1    2.004776 S    
O6    C8    1.297139 A    
C28   C30   1.401720 A    
C16   C32   1.479223 S    
C26   C28   1.394201 A    
O3    V1    2.008921 S    
O14   V4    1.705159 S    
H20   C62   1.083728 S    
C43   C45   1.393857 A    
C10   C12   1.405975 A    
C38   H22   1.080874 S    
C24   C36   1.405272 A    
C42   C64   1.396989 A    
C16   C18   1.402167 A    
C59   H23   1.077020 S    
C21   C29   1.414571 A    
C2    O12   1.296154 A    
C38   C54   1.411841 A    
C17   C19   1.396114 A    
C22   C30   1.414568 A    
C40   C60   1.407636 A    
C18   C20   1.396112 A    
C33   H7    1.084702 S    
V2    O20   1.704240 S    
C39   C59   1.407645 A    
C54   C56   1.416842 A    
C51   C53   1.426931 A    
C49   C57   1.401166 A    
O11   V3    2.002781 S    
C21   C23   1.398600 A    
O17   V3    2.008322 S    
C22   C24   1.398603 A    
C23   C35   1.405274 A    
C32   H14   1.086591 S    
C9    C19   1.405928 A    
C10   C20   1.405944 A    
C49   C63   1.427435 A    
O8    V2    2.004755 S    
C29   C33   1.478323 S    
C14   H16   1.081180 S    
C1    O11   1.296148 A    
C25   C27   1.394206 A    
C50   C64   1.427450 A    
C55   N1    1.437930 S    
C12   H2    1.082772 S    
C31   H13   1.086589 S    
C48   C50   1.432364 A    
C27   H17   1.083565 S    
C3    C64   1.484835 S    
V4    O20   2.151835 S    
C45   C47   1.415666 A    
C46   H28   1.076339 S    
C44   C46   1.393855 A    
V3    O19   2.151881 S    
O10   V2    2.004713 S    
O1    V3    2.004069 S    
C37   C61   1.393025 A    
C11   H1    1.082756 S    
C56   C58   1.397026 A    
C26   H6    1.083192 S    
N1    O21   1.301349 A    
C41   C63   1.396990 A    
C34   H8    1.084700 S    
C53   C55   1.416738 A    
C42   C44   1.389577 A    
O18   V4    2.008349 S    
C52   C54   1.426958 A    
C31   C33   1.344211 D    
O8    C4    1.297660 A    
O17   C7    1.297990 A    
O16   C6    1.298302 A    
O1    C3    1.297627 A    
C65   N3    1.157392 T    
C47   C51   1.437785 A    
C1    C36   1.475487 S    
N2    O24   1.301801 A    
C66   N4    1.157393 T    
C30   C34   1.478320 S    
C50   C58   1.401157 A    
O10   C6    1.298062 A    
C19   H11   1.082733 S    
O16   V4    2.005268 S    
C57   H31   1.083222 S    
C43   H29   1.082723 S    
C52   C60   1.429816 A    
O5    V1    2.002189 S    
C15   C31   1.479222 S    
O6    V2    2.002177 S    
C38   C62   1.393021 A    
O18   C8    1.297988 A    
C25   C35   1.403389 A    
O2    V4    2.004088 S    
C41   H25   1.083858 S    
C26   C36   1.403389 A    
O15   C5    1.298317 A    
C51   C59   1.429806 A    
C13   C15   1.405860 A    
C12   C14   1.394233 A    
C14   C16   1.405879 A    
C46   C48   1.415672 A    
C47   C49   1.432388 A    
O15   V3    2.005247 S    
C21   C65   1.444685 S    
O9    C5    1.298048 A    
O13   V1    2.150912 S    
C32   C34   1.344207 D    
C20   H12   1.082755 S    
O14   V2    2.150958 S    
C42   H26   1.083857 S    
O2    C4    1.297617 A    
N1    O22   1.301627 A    
C8    C10   1.478510 S    
O4    V2    2.008894 S    
C55   C57   1.396956 A    
C5    C39   1.482040 S    
C41   C43   1.389579 A    
C27   C29   1.401723 A    
C40   C62   1.392850 A    
C39   C61   1.392859 A    
C17   H9    1.083409 S    
C6    C40   1.482049 S    
N2    O23   1.301455 A    
C58   H32   1.083214 S    
