data_mof_unit_pretest_641.cif
_audit_creation_date              2012-12-11T16:43:10-0500
_audit_creation_method            fapswitch 2.2
_symmetry_space_group_name_H-M    P1
_symmetry_Int_Tables_number       1
_space_group_crystal_system       triclinic
_cell_length_a                    6.977838
_cell_length_b                    23.21504
_cell_length_c                    25.804286
_cell_angle_alpha                 104.71191
_cell_angle_beta                  90.248285
_cell_angle_gamma                 90.427146
_cell_volume                      4042.8172701

loop_
_atom_site_label
_atom_site_type_symbol
_atom_type_description
_atom_site_fract_x
_atom_site_fract_y
_atom_site_fract_z
_atom_type_partial_charge
O1    O     O_R   0.505750 0.453350 0.547660 -0.522106
O2    O     O_R   0.170990 0.432220 0.437590 -0.543852
O3    O     O_R   0.005600 0.546650 0.452340 -0.539836
C1    C     C_R   0.339793 0.415210 0.417735 0.715111
O4    O     O_R   0.175720 0.446240 0.546340 -0.552941
O5    O     O_R   0.010370 0.560770 0.561860 -0.535524
C2    C     C_R   0.344731 0.433870 0.562341 0.776689
O6    O     O_R   0.500990 0.439230 0.438140 -0.537059
O7    O     O_3   0.340820 0.537560 0.504970 -0.373087
V1    V     V_3+5 0.064050 0.493030 0.499080 1.403140
O8    O     O_R   0.680940 0.567780 0.562410 -0.545926
C3    C     C_R   0.850592 0.584405 0.582376 0.705424
O9    O     O_R   0.676210 0.553760 0.453660 -0.541825
C4    C     C_R   0.845038 0.565451 0.437144 0.687612
V2    V     V_3+5 0.564640 0.506970 0.500920 1.427798
O10   O     O_3   0.837740 0.462440 0.495030 -0.368534
C5    C     C_R   0.801555 0.854060 0.095391 -0.213251
H1    H     H_    0.694020 0.849964 0.064226 0.157492
C6    C     C_R   0.790030 0.816543 0.129995 -0.138891
H2    H     H_    0.675294 0.783919 0.123977 0.127138
C7    C     C_R   0.926876 0.820347 0.170992 0.040109
C8    C     C_R   0.075566 0.862872 0.176288 -0.149390
H3    H     H_    0.180125 0.868407 0.208319 0.178456
C9    C     C_R   0.090519 0.899268 0.140708 0.590623
C10   C     C_R   0.952860 0.895303 0.099956 -0.168425
C11   C     C_R   0.081508 0.755858 0.225438 0.496200
C12   C     C_R   0.067882 0.724514 0.265160 -0.283110
H4    H     H_    0.197586 0.711755 0.281943 0.207313
C13   C     C_R   0.889399 0.707905 0.281913 -0.115335
C14   C     C_R   0.722941 0.724287 0.257944 0.492061
C15   C     C_R   0.736870 0.763683 0.224868 -0.270921
H5    H     H_    0.607404 0.780401 0.211332 0.209795
C16   C     C_R   0.915402 0.779963 0.207872 -0.081355
C17   C     C_R   0.732639 0.681616 0.361293 -0.077762
H6    H     H_    0.628437 0.716411 0.363361 0.151274
C18   C     C_R   0.719747 0.646639 0.398138 -0.193608
H7    H     H_    0.604867 0.654732 0.427117 0.126785
C19   C     C_R   0.856391 0.602603 0.398306 -0.049671
C20   C     C_R   0.004760 0.593812 0.360575 -0.162838
H8    H     H_    0.111112 0.559755 0.359428 0.117377
C21   C     C_R   0.014513 0.627551 0.322825 -0.157012
H9    H     H_    0.126818 0.617916 0.293227 0.108974
C22   C     C_R   0.878829 0.672044 0.322590 0.131895
C23   C     C_R   0.714528 0.644546 0.668990 -0.130646
C24   C     C_R   0.863828 0.634154 0.631383 -0.112829
C25   C     C_R   0.028549 0.670680 0.641308 -0.176604
C26   C     C_R   0.044386 0.717355 0.687909 0.198980
C27   C     C_R   0.895482 0.727034 0.725920 0.014444
C28   C     C_R   0.730151 0.690238 0.716586 -0.122698
C29   C     C_R   0.207177 0.754409 0.697210 -0.161556
C30   C     C_R   0.223894 0.800341 0.744043 -0.090493
C31   C     C_R   0.078231 0.810104 0.782658 0.086742
C32   C     C_R   0.912512 0.773412 0.773399 -0.101748
C33   C     C_R   0.763930 0.782999 0.811501 -0.118974
C34   C     C_R   0.601094 0.745611 0.802202 0.564499
C35   C     C_R   0.584631 0.699574 0.755270 0.520526
C36   C     C_R   0.095002 0.855944 0.830148 0.616332
C37   C     C_R   0.946021 0.866208 0.868070 -0.224686
C38   C     C_R   0.781182 0.829651 0.858215 -0.166342
H10   H     H_    0.588151 0.616139 0.661614 0.175787
H11   H     H_    0.143979 0.663129 0.612423 0.121157
H12   H     H_    0.322672 0.747575 0.668399 0.112613
H13   H     H_    0.352085 0.827905 0.750093 0.161687
H14   H     H_    0.666841 0.837290 0.887408 0.210452
C39   C     C_R   0.289245 0.170335 0.140061 -0.216552
C40   C     C_R   0.456277 0.135398 0.130942 -0.075666
C41   C     C_R   0.604073 0.147465 0.169605 -0.202522
C42   C     C_R   0.583571 0.192649 0.217364 0.086648
C43   C     C_R   0.415541 0.227340 0.225990 0.053974
C44   C     C_R   0.268708 0.216410 0.186937 0.094867
C45   C     C_R   0.727158 0.203427 0.257002 -0.165110
C46   C     C_R   0.706284 0.248677 0.304217 -0.180249
C47   C     C_R   0.540781 0.283821 0.312898 0.080277
C48   C     C_R   0.393977 0.272911 0.273836 0.054531
C49   C     C_R   0.225952 0.307605 0.282464 0.098091
C50   C     C_R   0.082391 0.296838 0.242817 -0.188540
C51   C     C_R   0.103238 0.251571 0.195609 -0.201939
C52   C     C_R   0.520165 0.329847 0.359802 -0.193342
C53   C     C_R   0.353119 0.364774 0.368935 -0.082711
C54   C     C_R   0.205409 0.352766 0.330242 -0.229101
H15   H     H_    0.174755 0.161734 0.110475 0.117752
H16   H     H_    0.732511 0.120647 0.163219 0.131458
H17   H     H_    0.856504 0.177076 0.251358 0.147272
H18   H     H_    0.820425 0.256406 0.333855 0.142158
H19   H     H_    0.634592 0.338410 0.389408 0.139629
H20   H     H_    0.076990 0.379594 0.336632 0.120894
H21   H     H_    0.953057 0.323194 0.248458 0.132826
H22   H     H_    0.989088 0.243837 0.165973 0.126377
C55   C     C_R   0.277639 0.127425 0.887053 -0.300803
H23   H     H_    0.148380 0.113053 0.902715 0.231422
C56   C     C_R   0.265771 0.167633 0.854615 0.466227
C57   C     C_R   0.428961 0.180739 0.828018 -0.232415
C58   C     C_R   0.606470 0.161111 0.841444 0.549844
C59   C     C_R   0.622312 0.130739 0.882112 0.395695
C60   C     C_R   0.455652 0.108296 0.901638 -0.333589
C61   C     C_R   0.502226 0.273912 0.799130 -0.121366
H24   H     H_    0.579280 0.291346 0.836421 0.126167
C62   C     C_R   0.484652 0.309199 0.762687 -0.223300
H25   H     H_    0.546388 0.353534 0.772630 0.144341
C63   C     C_R   0.387265 0.287570 0.713853 0.013323
C64   C     C_R   0.301595 0.230702 0.702740 0.618345
C65   C     C_R   0.313872 0.196143 0.740057 -0.124465
H26   H     H_    0.245474 0.152673 0.731149 0.173629
C66   C     C_R   0.415875 0.217223 0.788308 0.113612
C67   C     C_R   0.497219 0.313744 0.630570 -0.255210
H27   H     H_    0.597573 0.277308 0.624621 0.167990
C68   C     C_R   0.492387 0.349725 0.593987 0.444958
C69   C     C_R   0.354737 0.395235 0.600161 -0.198684
C70   C     C_R   0.230652 0.405573 0.644227 -0.341529
H28   H     H_    0.129599 0.441865 0.650483 0.156411
C71   C     C_R   0.240162 0.370818 0.681635 0.508159
C72   C     C_R   0.374595 0.324695 0.674855 -0.006343
O11   O     O_R   0.308350 0.060850 0.061810 -0.538844
O12   O     O_R   0.633860 0.053770 0.953650 -0.517572
O13   O     O_R   0.798960 0.939210 0.938150 -0.544434
C73   C     C_R   0.465089 0.067126 0.938042 0.793702
O14   O     O_R   0.638360 0.067800 0.062400 -0.553869
O15   O     O_R   0.803500 0.953330 0.047670 -0.544741
C74   C     C_R   0.469551 0.084888 0.082198 0.705245
O16   O     O_R   0.303810 0.046730 0.952290 -0.541329
O17   O     O_3   0.468430 0.962490 0.995010 -0.361419
V3    V     V_3+5 0.745300 0.006960 0.000930 1.481826
O18   O     O_R   0.132880 0.946160 0.046390 -0.513445
C75   C     C_R   0.964035 0.934344 0.062733 0.744619
O19   O     O_R   0.128380 0.932130 0.937650 -0.502966
C76   C     C_R   0.958876 0.915719 0.917450 0.768038
V4    V     V_3+5 0.244670 0.992930 0.999140 1.559604
O20   O     O_3   0.971670 0.037510 0.005000 -0.386738
F1    F     F_    0.253704 0.891533 0.838653 -0.685393
F2    F     F_    0.457349 0.753547 0.838600 -0.644151
F3    F     F_    0.426176 0.664005 0.747789 -0.648198
O21   O     O_3   0.093292 0.193610 0.848894 -0.471466
C77   C     C_3   0.091685 0.251477 0.883555 -0.096864
H29   H     H_    0.193499 0.281704 0.870257 0.105961
H30   H     H_    0.123938 0.251024 0.925764 0.065791
H31   H     H_    0.946423 0.270279 0.882603 0.159945
F4    F     F_    0.763297 0.172078 0.814944 -0.613538
O22   O     O_3   0.800080 0.125951 0.904042 -0.516953
C78   C     C_3   0.816561 0.171631 0.952148 -0.166058
H32   H     H_    0.961399 0.170410 0.969604 0.127135
H33   H     H_    0.711899 0.165579 0.982744 0.095161
H34   H     H_    0.797124 0.216483 0.944939 0.099988
F5    F     F_    0.204205 0.209054 0.656129 -0.669141
O23   O     O_3   0.608957 0.337040 0.549298 -0.549572
C79   C     C_3   0.800842 0.350804 0.565504 -0.154789
H35   H     H_    0.858333 0.319093 0.587382 0.129380
H36   H     H_    0.816564 0.397500 0.590241 0.115822
H37   H     H_    0.889594 0.346628 0.529197 0.169355
F6    F     F_    0.236221 0.939609 0.147240 -0.683139
O24   O     O_3   0.128936 0.384747 0.727209 -0.544651
C80   C     C_3   0.939021 0.366029 0.713241 -0.214786
H38   H     H_    0.930820 0.317763 0.692345 0.161143
H39   H     H_    0.871217 0.393243 0.688540 0.119770
H40   H     H_    0.855877 0.372734 0.750673 0.167894
O25   O     O_3   0.258393 0.761350 0.203456 -0.549968
C81   C     C_3   0.268734 0.718802 0.153515 -0.247332
H41   H     H_    0.173065 0.730629 0.123320 0.144674
H42   H     H_    0.234117 0.673025 0.157032 0.126370
H43   H     H_    0.417112 0.718064 0.138296 0.146863
O26   O     O_3   0.545505 0.701144 0.265300 -0.550246
C82   C     C_3   0.531223 0.643044 0.231228 -0.260620
H44   H     H_    0.564293 0.642210 0.188842 0.128821
H45   H     H_    0.382115 0.626617 0.232010 0.144944
H46   H     H_    0.625915 0.611657 0.245162 0.141082

loop_
_geom_bond_atom_site_label_1
_geom_bond_atom_site_label_2
_ccdc_geom_bond_type
C23   C28   A    
C34   C35   A    
C49   C50   A    
C58   C59   A    
C12   C13   A    
C65   H26   S    
C64   F5    S    
C47   C48   A    
C71   C72   A    
C1    O6    A    
C82   H46   S    
C79   H35   S    
O16   V4    S    
O18   C75   A    
C20   C21   A    
C24   C25   A    
C23   C24   A    
C14   O26   S    
C67   C68   A    
C38   H14   S    
C64   C65   A    
O13   C76   A    
C36   F1    S    
C81   H41   S    
C6    C7    A    
O17   V4    S    
C70   C71   A    
O5    C3    A    
C14   C15   A    
C78   H34   S    
C7    C16   S    
V2    O10   S    
C62   H25   S    
C69   C70   A    
C5    H1    S    
C17   H6    S    
C21   H9    S    
C80   H40   S    
C57   C58   A    
C54   H20   S    
C79   H36   S    
O11   C74   A    
O8    V2    S    
C26   C27   A    
C51   H22   S    
C42   C43   A    
C61   C62   A    
C77   H31   S    
C47   C52   A    
C15   C16   A    
O1    V2    S    
C55   C56   A    
C49   C54   A    
C40   C41   A    
O13   V3    S    
O9    C4    A    
C13   C22   S    
C44   C51   A    
C21   C22   A    
C11   O25   S    
C43   C44   A    
C82   H45   S    
C82   H44   S    
C26   C29   A    
C45   H17   S    
C33   C38   A    
C8    H3    S    
C27   C32   A    
C48   C49   A    
C25   H11   S    
C41   C42   A    
C35   F3    S    
C30   H13   S    
C50   C51   A    
C1    C53   S    
C31   C36   A    
C56   C57   A    
O4    C2    A    
C52   C53   A    
C46   C47   A    
C56   O21   S    
C37   C38   A    
C32   C33   A    
C30   C31   A    
C19   C20   A    
C55   C60   A    
O2    C1    A    
O14   V3    S    
C13   C14   A    
C4    C19   S    
C11   C16   A    
C39   H15   S    
C15   H5    S    
C60   C73   S    
C80   H38   S    
C34   F2    S    
C68   O23   S    
C61   H24   S    
C29   C30   A    
C11   C12   A    
C43   C48   A    
O15   C75   A    
C9    C10   A    
C65   C66   A    
C50   H21   S    
O17   V3    S    
C46   H18   S    
O3    C4    A    
O11   V4    S    
C52   H19   S    
C27   C28   A    
C67   C72   A    
C63   C72   S    
O6    V2    S    
C62   C63   A    
C40   C74   S    
O9    V2    S    
O19   C76   A    
C59   O22   S    
C8    C9    A    
C29   H12   S    
C68   C69   A    
V4    O20   S    
O2    V1    S    
C71   O24   S    
O18   V4    S    
C20   H8    S    
C79   H37   S    
C31   C32   A    
O19   V4    S    
O7    V1    S    
C61   C66   A    
C33   C34   A    
C18   H7    S    
O1    C2    A    
C81   H43   S    
C17   C22   A    
O23   C79   S    
O5    V1    S    
O12   C73   A    
C78   H32   S    
C37   C76   S    
C3    C24   S    
C28   C35   A    
C67   H27   S    
O24   C80   S    
C5    C10   A    
O26   C82   S    
C6    H2    S    
O14   C74   A    
O7    V2    S    
O4    V1    S    
O3    V1    S    
V1    O10   S    
C70   H28   S    
C18   C19   A    
C78   H33   S    
C36   C37   A    
C77   H29   S    
C23   H10   S    
C42   C45   A    
O15   V3    S    
C81   H42   S    
C63   C64   A    
C5    C6    A    
O21   C77   S    
C17   C18   A    
C80   H39   S    
V3    O20   S    
C59   C60   A    
C10   C75   S    
C25   C26   A    
C58   F4    S    
C9    F6    S    
C57   C66   S    
C53   C54   A    
O12   V3    S    
C73   O16   A    
C45   C46   A    
C41   H16   S    
C39   C40   A    
O25   C81   S    
C77   H30   S    
C2    C69   S    
C55   H23   S    
C7    C8    A    
O22   C78   S    
C39   C44   A    
O8    C3    A    
C12   H4    S    
