data_mof_unit_pretest_1145.cif
_audit_creation_date              2012-12-10T18:11:53-0500
_audit_creation_method            fapswitch 2.2
_symmetry_space_group_name_H-M    P1
_symmetry_Int_Tables_number       1
_space_group_crystal_system       triclinic
_cell_length_a                    15.851283
_cell_length_b                    10.736262
_cell_length_c                    9.418127
_cell_angle_alpha                 90.022145
_cell_angle_beta                  90.127939
_cell_angle_gamma                 89.976019
_cell_volume                      1602.80581823

loop_
_atom_site_label
_atom_site_type_symbol
_atom_type_description
_atom_site_fract_x
_atom_site_fract_y
_atom_site_fract_z
_atom_type_partial_charge
C1    C     C_R   0.500880 0.259858 0.499734 0.779413
C2    C     C_3   0.082760 0.502156 0.500817 0.199477
C3    C     C_3   0.972411 0.609564 0.558634 -0.158675
C4    C     C_3   0.917482 0.502972 0.501346 0.199523
C5    C     C_3   0.028214 0.599461 0.424317 -0.167665
C6    C     C_3   0.971745 0.492919 0.367055 -0.158924
C7    C     C_1   0.174460 0.501095 0.500225 -0.093149
C8    C     C_1   0.825704 0.502407 0.501046 -0.090526
C9    C     C_3   0.573155 0.071706 0.594265 -0.390073
C10   C     C_3   0.572045 0.928127 0.595715 -0.360196
C11   C     C_3   0.415537 0.073554 0.556733 -0.393407
C12   C     C_R   0.339799 0.499468 0.499884 0.821148
C13   C     C_3   0.513512 0.071227 0.346179 -0.395439
C14   C     C_3   0.500865 0.122037 0.499099 0.108862
C15   C     C_3   0.499604 0.878472 0.499969 0.103172
C16   C     C_3   0.413212 0.929341 0.554154 0.351116
C17   C     C_3   0.514073 0.928586 0.346908 -0.472317
C18   C     C_3   0.524177 0.624820 0.084804 -0.185199
C19   C     C_3   0.524116 0.626496 0.917403 -0.195607
C20   C     C_3   0.563234 0.410019 0.082841 -0.193050
C21   C     C_3   0.417862 0.467451 0.083283 -0.184181
C22   C     C_3   0.562753 0.411683 0.915273 -0.185549
C23   C     C_R   0.499836 0.740292 0.499967 0.765321
C24   C     C_3   0.417461 0.469304 0.916131 -0.184562
C25   C     C_R   0.660241 0.500313 0.500155 0.830884
C26   C     C_3   0.972093 0.405741 0.577905 -0.163124
C27   C     C_3   0.027825 0.395651 0.443589 -0.158791
C28   C     C_1   0.250054 0.500205 0.499852 -0.214223
C29   C     C_1   0.750059 0.501452 0.500578 -0.209594
C30   C     C_3   0.028568 0.512293 0.635152 -0.158311
Cu1   Cu    Cu3+1 0.500040 0.499860 0.642410 0.895533
Cu2   Cu    Cu3+1 0.499960 0.500140 0.357590 0.888331
H1    H     H_    0.051944 0.307855 0.396376 0.121566
H2    H     H_    0.564018 0.894944 0.706803 0.190775
H3    H     H_    0.405687 0.108374 0.666850 0.187443
H4    H     H_    0.461803 0.104445 0.275447 0.170472
H5    H     H_    0.574127 0.105902 0.301665 0.169559
H6    H     H_    0.575540 0.894448 0.305071 0.182123
H7    H     H_    0.463705 0.894358 0.274148 0.165010
H8    H     H_    0.362781 0.110978 0.491167 0.101876
H9    H     H_    0.363976 0.901690 0.474893 0.031409
H10   H     H_    0.587153 0.653957 0.125213 0.139485
H11   H     H_    0.947717 0.326225 0.640954 0.121464
H12   H     H_    0.478164 0.695642 0.122280 0.140996
H13   H     H_    0.478640 0.698499 0.880698 0.166871
H14   H     H_    0.587283 0.655363 0.878076 0.137112
H15   H     H_    0.627913 0.431581 0.121420 0.144221
H16   H     H_    0.627343 0.433515 0.877037 0.144169
H17   H     H_    0.398353 0.373847 0.121789 0.137253
H18   H     H_    0.369519 0.534544 0.121506 0.144053
H19   H     H_    0.368953 0.537033 0.879794 0.134287
H20   H     H_    0.397810 0.376484 0.875205 0.141392
H21   H     H_    0.548589 0.314312 0.120395 0.136484
H22   H     H_    0.947085 0.485013 0.256997 0.121710
H23   H     H_    0.547869 0.316624 0.875844 0.138446
H24   H     H_    0.052712 0.679007 0.361445 0.122907
H25   H     H_    0.948433 0.697419 0.605908 0.124884
H26   H     H_    0.053383 0.520426 0.745097 0.124867
H27   H     H_    0.566152 0.106713 0.704862 0.167630
H28   H     H_    0.635080 0.105214 0.554012 0.150357
H29   H     H_    0.633779 0.892062 0.557354 0.140450
N1    N     N_3   0.501840 0.500250 0.143650 -0.112215
N2    N     N_3   0.501160 0.503300 0.856280 -0.115375
O1    O     O_R   0.500050 0.317570 0.620260 -0.598474
O2    O     O_R   0.499980 0.317810 0.379740 -0.595431
O3    O     O_R   0.379110 0.499870 0.620240 -0.591913
O4    O     O_R   0.379040 0.500110 0.379720 -0.585911
O5    O     O_R   0.500020 0.682190 0.620260 -0.569699
O6    O     O_R   0.499950 0.682430 0.379740 -0.606577
O7    O     O_R   0.620960 0.499890 0.620280 -0.586541
O8    O     O_R   0.620890 0.500130 0.379760 -0.583930
O9    O     O_3   0.396453 0.885178 0.693805 -0.624302
C31   C     C_3   0.322377 0.811692 0.699116 0.082397
H30   H     H_    0.326298 0.752491 0.795540 0.152462
H31   H     H_    0.317429 0.746689 0.607383 0.125037
C32   C     C_3   0.243535 0.893757 0.710637 -0.380978
H32   H     H_    0.247868 0.951680 0.808216 0.220127
H33   H     H_    0.239339 0.956997 0.617567 0.206478
C33   C     C_3   0.163577 0.814764 0.716650 -0.930260
H34   H     H_    0.156548 0.759927 0.617353 0.263685
H35   H     H_    0.107682 0.876278 0.728021 0.251102
H36   H     H_    0.165885 0.750232 0.808746 0.250826

loop_
_geom_bond_atom_site_label_1
_geom_bond_atom_site_label_2
_ccdc_geom_bond_type
C24   H20   S    
Cu1   O3    S    
C22   H16   S    
C31   H30   S    
C23   O6    A    
C5    H24   S    
C20   H21   S    
C2    C7    S    
C16   O9    S    
C32   C33   S    
C4    C8    S    
C21   H17   S    
C19   H14   S    
C27   H1    S    
C26   C27   S    
C12   C28   S    
C8    C29   T    
C32   H33   S    
C10   C15   S    
C18   H10   S    
C5    C6    S    
C11   C14   S    
C15   C16   S    
C18   C19   S    
C17   H7    S    
C22   N2    S    
Cu1   O7    S    
Cu1   Cu2   S    
C19   N2    S    
C1    O2    A    
C2    C27   S    
C25   O8    A    
C9    C10   S    
C13   H5    S    
C24   H19   S    
C15   C23   S    
C13   C14   S    
C31   H31   S    
C6    H22   S    
C21   H18   S    
C26   H11   S    
Cu2   O8    S    
C25   C29   S    
Cu1   O5    S    
C12   O4    A    
Cu1   N2    S    
C32   H32   S    
C13   H4    S    
C4    C6    S    
C33   H35   S    
C18   N1    S    
C12   O3    A    
C7    C28   T    
C9    H27   S    
C23   O5    A    
C3    C30   S    
C9    C14   S    
C18   H12   S    
C11   C16   S    
C6    C27   S    
C10   H2    S    
C21   N1    S    
Cu2   O6    S    
Cu2   O4    S    
C3    H25   S    
C20   C22   S    
C26   C30   S    
C24   N2    S    
C31   C32   S    
C10   H29   S    
C3    C4    S    
C1    O1    A    
C15   C17   S    
Cu1   O1    S    
O9    C31   S    
C3    C5    S    
C33   H36   S    
C4    C26   S    
C19   H13   S    
C22   H23   S    
C1    C14   S    
C13   C17   S    
C2    C30   S    
C9    H28   S    
C11   H3    S    
Cu2   N1    S    
C30   H26   S    
C17   H6    S    
C20   N1    S    
C11   H8    S    
C20   H15   S    
C33   H34   S    
C2    C5    S    
C21   C24   S    
C25   O7    A    
C16   H9    S    
Cu2   O2    S    
