data_mof_unit_pretest_45.cif
_audit_creation_date              2012-12-11T16:08:37-0500
_audit_creation_method            fapswitch 2.2
_symmetry_space_group_name_H-M    P1
_symmetry_Int_Tables_number       1
_space_group_crystal_system       triclinic
_cell_length_a                    12.953546
_cell_length_b                    13.285607
_cell_length_c                    27.72562
_cell_angle_alpha                 95.119728
_cell_angle_beta                  89.839312
_cell_angle_gamma                 119.066783
_cell_volume                      4149.36720731

loop_
_atom_site_label
_atom_site_type_symbol
_atom_type_description
_atom_site_fract_x
_atom_site_fract_y
_atom_site_fract_z
_atom_type_partial_charge
C1    C     C_R   0.627618 0.896588 0.426949 0.549674
C2    C     C_R   0.609149 0.377064 0.232715 -0.143998
C3    C     C_R   0.599229 0.361843 0.282292 0.286702
C4    C     C_R   0.669652 0.323982 0.304658 0.005599
C5    C     C_R   0.685680 0.351381 0.205105 0.006153
C6    C     C_1   0.695279 0.371316 0.154582 -0.004392
C7    C     C_1   0.654035 0.299313 0.354603 -0.009180
C8    C     C_1   0.703909 0.396613 0.113484 -0.002709
C9    C     C_R   0.224246 0.771365 0.344749 -0.135555
C10   C     C_R   0.213488 0.768476 0.295143 0.009726
C11   C     C_R   0.196919 0.763421 0.194924 0.020039
C12   C     C_R   0.601137 0.221910 0.440548 0.543990
C13   C     C_R   0.223315 0.685731 0.215385 -0.133499
C14   C     C_R   0.230638 0.687665 0.265288 -0.131035
C15   C     C_R   0.175696 0.751675 0.145282 -0.127914
C16   C     C_R   0.132114 0.817034 0.125306 -0.002878
C17   C     C_R   0.184971 0.933690 0.356745 0.004016
C18   C     C_R   0.174113 0.931574 0.305743 -0.008022
C19   C     C_R   0.190598 0.849891 0.275234 0.038752
C20   C     C_R   0.154347 0.013479 0.284511 -0.091053
C21   C     C_R   0.147047 0.013512 0.234020 0.007261
C22   C     C_R   0.155691 0.926203 0.203787 -0.022417
C23   C     C_R   0.269932 0.876680 0.425231 0.541326
C24   C     C_R   0.182371 0.847637 0.224674 0.052167
C25   C     C_R   0.129685 0.908747 0.153658 -0.141798
C26   C     C_R   0.218574 0.857728 0.375808 -0.013705
C27   C     C_R   0.740158 0.953081 0.353855 -0.096892
C28   C     C_R   0.740982 0.943584 0.303823 0.004919
C29   C     C_R   0.739048 0.926398 0.202989 0.006292
C30   C     C_R   0.819510 0.029677 0.229845 -0.086980
C31   C     C_R   0.821786 0.037662 0.280125 -0.103184
C32   C     C_R   0.745696 0.913989 0.153155 -0.120698
C33   C     C_R   0.677864 0.805519 0.127051 -0.005278
C34   C     C_R   0.626778 0.899237 0.565179 0.549879
C35   C     C_R   0.568258 0.761031 0.351487 -0.123550
C36   C     C_R   0.572250 0.747402 0.301055 0.020902
C37   C     C_R   0.656491 0.840703 0.277147 0.059330
C38   C     C_R   0.491150 0.644323 0.273926 -0.112029
C39   C     C_R   0.494524 0.633386 0.223434 -0.133015
C40   C     C_R   0.577458 0.726284 0.199544 0.012599
C41   C     C_R   0.656733 0.831417 0.226528 0.062032
C42   C     C_R   0.588431 0.713882 0.149563 -0.136437
C43   C     C_R   0.649729 0.865544 0.377702 0.004447
C44   C     C_R   0.738031 0.301484 0.652849 -0.138355
C45   C     C_R   0.601417 0.225166 0.579066 0.546438
C46   C     C_R   0.750850 0.320009 0.703525 0.015010
C47   C     C_R   0.770805 0.349041 0.805318 -0.005877
C48   C     C_R   0.867645 0.362205 0.778285 -0.131081
C49   C     C_R   0.857216 0.346195 0.727672 -0.136918
C50   C     C_R   0.782651 0.373417 0.855594 -0.187852
C51   C     C_R   0.686691 0.365967 0.881908 -0.011313
C52   C     C_R   0.538543 0.274045 0.656952 -0.127930
C53   C     C_R   0.547457 0.285333 0.707050 0.004046
C54   C     C_R   0.653677 0.308127 0.730657 0.061969
C55   C     C_R   0.449668 0.269302 0.733695 -0.157957
C56   C     C_R   0.271764 0.879666 0.563455 0.551068
C57   C     C_R   0.456716 0.275529 0.783891 -0.091322
C58   C     C_R   0.562988 0.301659 0.808195 0.026097
C59   C     C_R   0.662331 0.318843 0.781423 0.011979
C60   C     C_R   0.573277 0.316641 0.858790 0.257916
C61   C     C_R   0.630528 0.275210 0.629595 -0.004138
C62   C     C_1   0.221710 0.863001 0.610164 -0.009563
C63   C     C_R   0.125269 0.735105 0.720236 -0.121062
C64   C     C_R   0.113624 0.727004 0.770028 -0.156983
C65   C     C_R   0.183450 0.933786 0.783900 0.292873
C66   C     C_R   0.197753 0.941776 0.733788 -0.087470
C67   C     C_1   0.634281 0.270354 0.395111 -0.002868
C68   C     C_R   0.167795 0.842479 0.702009 -0.006091
C69   C     C_R   0.144290 0.826138 0.802029 0.047682
C70   C     C_1   0.126239 0.813999 0.852932 -0.019812
C71   C     C_1   0.192162 0.852558 0.651480 -0.053405
C72   C     C_1   0.101781 0.797034 0.894461 -0.013319
C73   C     C_1   0.640850 0.867920 0.611958 -0.009151
C74   C     C_R   0.664525 0.925685 0.738789 -0.105150
C75   C     C_R   0.666041 0.913030 0.788286 -0.109615
C76   C     C_R   0.638343 0.719564 0.768978 -0.104261
C77   C     C_R   0.636831 0.732230 0.719428 -0.106146
C78   C     C_R   0.746938 0.299037 0.277162 -0.146513
C79   C     C_R   0.650699 0.835674 0.704225 0.034754
C80   C     C_R   0.653072 0.809977 0.803534 0.033109
C81   C     C_1   0.665219 0.800179 0.854293 -0.058051
C82   C     C_1   0.647154 0.849762 0.653423 -0.055780
C83   C     C_1   0.683086 0.790647 0.895884 -0.009767
C84   C     C_R   0.066070 0.773638 0.078696 0.547615
C85   C     C_R   0.717013 0.441534 0.067334 0.537511
C86   C     C_R   0.719461 0.782821 0.080599 0.546320
C87   C     C_R   0.056794 0.766094 0.941287 0.539198
C88   C     C_R   0.709755 0.431702 0.929664 0.554242
C89   C     C_R   0.757599 0.315147 0.227474 0.285745
C90   C     C_R   0.716453 0.776174 0.943005 0.545124
Cr1   Cr    Cr6+3 0.416430 0.829200 0.492370 1.030168
Cr2   Cr    Cr6+3 0.674630 0.087020 0.504170 1.034067
Cr3   Cr    Cr6+3 0.408920 0.083740 0.503490 1.022585
Cr4   Cr    Cr6+3 0.914010 0.832750 0.013970 1.020987
Cr5   Cr    Cr6+3 0.922310 0.578600 0.003000 1.022222
Cr6   Cr    Cr6+3 0.656280 0.574630 0.003870 1.043010
H1    H     H_    0.797595 0.265510 0.294139 0.114481
H2    H     H_    0.148211 0.080733 0.307240 0.185410
H3    H     H_    0.812790 0.985700 0.135554 0.138767
H4    H     H_    0.804049 0.033927 0.373768 0.154435
H5    H     H_    0.882844 0.102895 0.211963 0.176674
H6    H     H_    0.885942 0.117632 0.300453 0.135814
H7    H     H_    0.534480 0.630399 0.129162 0.126851
H8    H     H_    0.433154 0.552128 0.203143 0.105264
H9    H     H_    0.425984 0.572003 0.291751 0.126063
H10   H     H_    0.498696 0.693228 0.369927 0.125983
H11   H     H_    0.868976 0.407263 0.873576 0.140427
H12   H     H_    0.809203 0.302648 0.631804 0.123095
H13   H     H_    0.951578 0.385648 0.796276 0.107151
H14   H     H_    0.932590 0.355642 0.707444 0.106692
H15   H     H_    0.379852 0.263385 0.803566 0.185387
H16   H     H_    0.367229 0.250630 0.715678 0.101935
H17   H     H_    0.455025 0.254130 0.639512 0.139132
H18   H     H_    0.103234 0.658007 0.696064 0.124774
H19   H     H_    0.557032 0.409204 0.215804 0.122445
H20   H     H_    0.080750 0.643258 0.783623 0.119545
H21   H     H_    0.233773 0.025393 0.719842 0.111627
H22   H     H_    0.674650 0.005892 0.727460 0.120619
H23   H     H_    0.678929 0.984029 0.814583 0.112319
H24   H     H_    0.629691 0.639958 0.780349 0.121075
H25   H     H_    0.625417 0.661840 0.693097 0.115614
H26   H     H_    0.180718 0.682887 0.123021 0.129462
H27   H     H_    0.246234 0.710171 0.358826 0.139533
H28   H     H_    0.234634 0.621133 0.192819 0.104326
H29   H     H_    0.249366 0.625638 0.280573 0.105813
H30   H     H_    0.095523 0.957793 0.137129 0.120361
O1    O     O_R   0.296680 0.802170 0.437540 -0.519159
O2    O     O_R   0.662610 0.183990 0.557860 -0.499469
O3    O     O_R   0.500730 0.201280 0.562180 -0.520914
O4    O     O_R   0.312500 0.978850 0.548170 -0.495086
O5    O     O_3   0.499990 0.999990 0.500010 -0.248208
O6    O     O_R   0.820790 0.857990 0.068830 -0.520891
O7    O     O_R   0.016700 0.827330 0.062850 -0.504483
O8    O     O_R   0.041970 0.673520 0.060040 -0.515934
O9    O     O_R   0.817980 0.483660 0.048840 -0.489733
O10   O     O_R   0.637200 0.461990 0.052510 -0.518638
O11   O     O_R   0.664790 0.681920 0.057970 -0.504009
O12   O     O_R   0.525380 0.838530 0.443500 -0.504203
O13   O     O_R   0.815840 0.852920 0.961840 -0.510110
O14   O     O_R   0.012100 0.822630 0.963670 -0.493752
O15   O     O_R   0.037010 0.668460 0.953040 -0.513022
O16   O     O_R   0.813390 0.478970 0.949660 -0.517203
O17   O     O_R   0.632250 0.456930 0.945520 -0.454054
O18   O     O_R   0.660200 0.677230 0.958780 -0.489811
O19   O     O_3   0.830870 0.661990 0.006950 -0.247598
O20   O     O_R   0.702130 0.995190 0.446810 -0.512265
O21   O     O_R   0.661770 0.181390 0.458760 -0.498530
O22   O     O_R   0.499820 0.198480 0.455280 -0.511689
O23   O     O_R   0.311660 0.976250 0.449080 -0.516972
O24   O     O_R   0.297580 0.804960 0.544440 -0.504134
O25   O     O_R   0.526220 0.841130 0.542590 -0.493283
O26   O     O_R   0.703030 0.997990 0.553710 -0.504857
C91   C     C_2   0.134921 0.108177 0.214232 0.179735
H31   H     H_    0.148473 0.123557 0.176471 0.101786
O27   O     O_2   0.112641 0.173311 0.240513 -0.564155
C92   C     C_2   0.158362 0.011924 0.389542 0.206438
H32   H     H_    0.225260 0.078145 0.414929 0.139079
O28   O     O_2   0.060076 0.003073 0.387845 -0.509891
O29   O     O_3   0.831787 0.288420 0.199790 -0.568753
C93   C     C_3   0.950391 0.367189 0.214745 -0.121134
H33   H     H_    0.972898 0.350801 0.250825 0.125257
H34   H     H_    0.969858 0.458720 0.215111 0.127924
H35   H     H_    0.008757 0.354504 0.188446 0.150140
O30   O     O_3   0.475082 0.297247 0.884901 -0.553626
C94   C     C_3   0.434942 0.192197 0.905707 -0.092357
H36   H     H_    0.500332 0.198986 0.933538 0.104103
H37   H     H_    0.414618 0.118897 0.877614 0.153132
H38   H     H_    0.351906 0.172413 0.924040 0.154292
O31   O     O_3   0.215190 0.031654 0.815639 -0.586273
C95   C     C_3   0.131461 0.069230 0.810269 -0.135879
H39   H     H_    0.039937 0.999012 0.815203 0.130236
H40   H     H_    0.137006 0.103266 0.774582 0.103121
H41   H     H_    0.151435 0.141171 0.838759 0.148481
O32   O     O_3   0.524997 0.389244 0.309506 -0.559481
C96   C     C_3   0.407489 0.300303 0.299337 -0.112715
H42   H     H_    0.396385 0.214750 0.306958 0.116255
H43   H     H_    0.378207 0.296670 0.261243 0.132774
H44   H     H_    0.348785 0.318852 0.323299 0.154871

loop_
_geom_bond_atom_site_label_1
_geom_bond_atom_site_label_2
_ccdc_geom_bond_type
C66   C68   A    
C45   O3    A    
C94   H36   S    
C64   H20   S    
C15   H26   S    
C55   H16   S    
Cr4   O14   S    
O31   C95   S    
C53   C55   A    
Cr3   O23   S    
C35   C36   A    
Cr5   O19   S    
C90   O18   A    
C87   O14   A    
C25   H30   S    
C42   H7    S    
C79   C82   S    
C90   O13   A    
C39   H8    S    
Cr6   O10   S    
C53   C54   A    
Cr6   O19   S    
C46   C49   A    
C84   O8    A    
C76   H24   S    
C14   H29   S    
Cr1   O1    S    
C5    C6    S    
C33   C42   A    
C12   O21   A    
O30   C94   S    
C8    C85   S    
C29   C32   A    
C52   C61   A    
C38   C39   A    
C65   C69   A    
Cr1   O5    S    
C95   H39   S    
C45   O2    A    
C58   C60   A    
C15   C16   A    
C11   C24   A    
C16   C84   S    
Cr4   O7    S    
Cr3   O22   S    
C18   C19   A    
C23   C26   S    
C45   C61   S    
O32   C96   S    
C86   O11   A    
C9    H27   S    
C63   H18   S    
C11   C15   A    
C1    C43   S    
O29   C93   S    
C66   H21   S    
Cr2   O26   S    
C47   C48   A    
C91   O27   D    
C35   C43   A    
C75   C80   A    
C88   O17   A    
C18   C20   A    
Cr4   O19   S    
C40   C42   A    
C48   H13   S    
C23   O23   A    
C94   H37   S    
C21   C22   A    
Cr2   O21   S    
Cr4   O13   S    
C1    O20   A    
C4    C7    S    
Cr3   O3    S    
Cr2   O2    S    
C88   O16   A    
C81   C83   T    
C44   C46   A    
C9    C26   A    
C89   O29   S    
C96   H44   S    
C54   C59   A    
C44   H12   S    
C78   C89   A    
C74   H22   S    
C12   C67   S    
C27   H4    S    
C74   C75   A    
Cr2   O20   S    
C31   H6    S    
Cr2   O5    S    
C75   H23   S    
C76   C77   A    
C96   H43   S    
C10   C14   A    
Cr6   O11   S    
C13   H28   S    
C34   O26   A    
C6    C8    T    
C85   O10   A    
C50   C51   A    
C58   C59   A    
C52   H17   S    
C47   C59   A    
C22   C25   A    
Cr5   O8    S    
Cr4   O6    S    
C65   O31   S    
C93   H34   S    
C33   C86   S    
C93   H35   S    
C4    C78   A    
C29   C30   A    
Cr6   O18   S    
Cr1   O12   S    
C2    H19   S    
C3    O32   S    
C96   H42   S    
C10   C19   A    
C46   C54   A    
C78   H1    S    
Cr5   O9    S    
C17   C18   A    
C77   C79   A    
C64   C69   A    
C87   O15   A    
C85   O9    A    
C40   C41   A    
Cr5   O15   S    
C94   H38   S    
C74   C79   A    
C55   C57   A    
C50   H11   S    
C22   C24   A    
C2    C5    A    
C17   C26   A    
C56   O24   A    
Cr3   O4    S    
C73   C82   T    
C39   C40   A    
C72   C87   S    
C52   C53   A    
C23   O1    A    
C9    C10   A    
C16   C25   A    
C83   C90   S    
C63   C68   A    
C92   H32   S    
C29   C41   A    
C28   C31   A    
C76   C80   A    
C80   C81   S    
C51   C88   S    
Cr1   O24   S    
C34   O25   A    
C44   C61   A    
C47   C50   A    
C32   H3    S    
C32   C33   A    
C12   O22   A    
C38   H9    S    
C92   O28   D    
C19   C24   A    
C35   H10   S    
Cr3   O5    S    
C93   H33   S    
Cr6   O17   S    
Cr1   O25   S    
C11   C13   A    
C30   C31   A    
C86   O6    A    
C57   C58   A    
C57   H15   S    
C95   H40   S    
C28   C37   A    
C68   C71   S    
C48   C49   A    
C30   H5    S    
C36   C38   A    
C60   O30   S    
C62   C71   T    
C2    C3    A    
C56   C62   S    
C37   C41   A    
C69   C70   S    
C56   O4    A    
C77   H25   S    
C34   C73   S    
C7    C67   T    
C63   C64   A    
C27   C43   A    
C20   H2    S    
C20   C21   A    
Cr5   O16   S    
C36   C37   A    
C65   C66   A    
C27   C28   A    
C21   C91   S    
C70   C72   T    
C51   C60   A    
C91   H31   S    
C13   C14   A    
C17   C92   S    
C84   O7    A    
C5    C89   A    
C1    O12   A    
C3    C4    A    
C49   H14   S    
C95   H41   S    
