data_mof_unit_pretest_1764.cif
_audit_creation_date              2013-03-05T15:43:42-0500
_audit_creation_method            fapswitch 2.2
_symmetry_space_group_name_H-M    P1
_symmetry_Int_Tables_number       1
_space_group_crystal_system       triclinic
_cell_length_a                    20.890982
_cell_length_b                    15.948738
_cell_length_c                    13.136393
_cell_angle_alpha                 89.620384
_cell_angle_beta                  91.233742
_cell_angle_gamma                 89.987294
_cell_volume                      4375.73546522

loop_
_atom_site_label
_atom_site_type_symbol
_atom_site_description
_atom_site_fract_x
_atom_site_fract_y
_atom_site_fract_z
_atom_type_partial_charge
Zn1   Zn    Zn3+2 0.434690 0.000000 0.602700 1.079926
Zn2   Zn    Zn3+2 0.934690 0.500000 0.602700 1.079927
Zn3   Zn    Zn3+2 0.584000 0.000000 0.565300 1.041726
Zn4   Zn    Zn3+2 0.084000 0.500000 0.565300 1.041725
Zn5   Zn    Zn3+2 0.490640 0.098690 0.416020 1.085915
Zn6   Zn    Zn3+2 0.490640 0.901310 0.416020 1.109517
Zn7   Zn    Zn3+2 0.990640 0.598690 0.416020 1.085916
Zn8   Zn    Zn3+2 0.990640 0.401310 0.416020 1.109518
O1    O     O_3   0.500000 0.000000 0.500000 -0.532681
O2    O     O_3   1.000000 0.500000 0.500000 -0.532680
O3    O     O_R   0.566980 0.833700 0.422750 -0.609838
O4    O     O_R   0.566980 0.166300 0.422750 -0.622813
O5    O     O_R   0.066980 0.333700 0.422750 -0.609839
O6    O     O_R   0.066980 0.666300 0.422750 -0.622813
O7    O     O_R   0.380760 0.097200 0.590320 -0.622169
O8    O     O_R   0.380760 0.902800 0.590320 -0.597352
O9    O     O_R   0.880760 0.597200 0.590320 -0.622168
O10   O     O_R   0.880760 0.402800 0.590320 -0.597354
O11   O     O_R   0.577210 0.000000 0.711160 -0.631497
O12   O     O_R   0.077210 0.500000 0.711160 -0.631497
O13   O     O_R   0.475030 0.069050 0.275760 -0.632730
O14   O     O_R   0.475030 0.930950 0.275760 -0.584516
O15   O     O_R   0.975030 0.569050 0.275760 -0.632730
O16   O     O_R   0.975030 0.430950 0.275760 -0.584515
O17   O     O_R   0.632300 0.097230 0.527310 -0.624390
O18   O     O_R   0.632300 0.902770 0.527310 -0.633459
O19   O     O_R   0.132300 0.597230 0.527310 -0.624392
O20   O     O_R   0.132300 0.402770 0.527310 -0.633459
O21   O     O_R   0.419940 0.833680 0.459580 -0.624954
O22   O     O_R   0.419940 0.166320 0.459580 -0.607652
O23   O     O_R   0.919940 0.333680 0.459580 -0.624951
O24   O     O_R   0.919940 0.666320 0.459580 -0.607651
O25   O     O_R   0.472710 0.000000 0.737340 -0.635213
O26   O     O_R   0.972710 0.500000 0.737340 -0.635214
C1    C     C_R   0.620415 0.839313 0.471177 0.877815
C2    C     C_R   0.621380 0.159216 0.467788 0.872189
C3    C     C_R   0.120415 0.339313 0.471177 0.877814
C4    C     C_R   0.121381 0.659216 0.467788 0.872193
C5    C     C_R   0.379574 0.160265 0.530040 0.883829
C6    C     C_R   0.379134 0.840418 0.530426 0.884601
C7    C     C_R   0.879574 0.660265 0.530040 0.883830
C8    C     C_R   0.879134 0.340418 0.530426 0.884614
C9    C     C_R   0.530383 0.998582 0.772321 0.825828
C10   C     C_R   0.030383 0.498582 0.772321 0.825828
C11   C     C_R   0.469760 0.000440 0.227835 0.929021
C12   C     C_R   0.969760 0.500440 0.227835 0.929025
H1    H     H_    0.744630 0.146289 0.517575 0.208119
H2    H     H_    0.723615 0.815166 0.588510 0.202741
H3    H     H_    0.244629 0.646289 0.517582 0.208121
H4    H     H_    0.223615 0.315166 0.588510 0.202741
C13   C     C_2   0.327385 0.779408 0.541526 0.046920
C14   C     C_2   0.329568 0.224071 0.535964 0.040707
C15   C     C_2   0.827384 0.279409 0.541524 0.046916
C16   C     C_2   0.829568 0.724070 0.535964 0.040705
C17   C     C_2   0.283888 0.767016 0.464656 0.191380
C18   C     C_2   0.267135 0.202875 0.521131 0.183217
C19   C     C_2   0.783886 0.267020 0.464655 0.191372
C20   C     C_2   0.767135 0.702875 0.521132 0.183218
H5    H     H_    0.659958 0.278099 0.408109 0.204100
H6    H     H_    0.660538 0.723928 0.406818 0.205277
H7    H     H_    0.159961 0.778095 0.408102 0.204096
H8    H     H_    0.160538 0.223928 0.406818 0.205277
C21   C     C_2   0.672208 0.220027 0.447649 -0.225802
C22   C     C_2   0.667128 0.771230 0.465275 -0.218960
C23   C     C_2   0.172209 0.720024 0.447646 -0.225815
C24   C     C_2   0.167128 0.271230 0.465275 -0.218959
C25   C     C_2   0.732827 0.204182 0.477213 -0.127661
C26   C     C_2   0.717065 0.767248 0.530729 -0.143406
C27   C     C_2   0.232828 0.704180 0.477215 -0.127658
C28   C     C_2   0.217065 0.267248 0.530729 -0.143407
H9    H     H_    0.447412 0.957281 0.912787 0.196587
H10   H     H_    0.947412 0.457281 0.912787 0.196586
C29   C     C_2   0.462501 0.002666 0.116869 -0.273564
C30   C     C_2   0.962501 0.502665 0.116869 -0.273566
C31   C     C_2   0.503263 0.960829 0.056347 0.272046
C32   C     C_2   0.003263 0.460829 0.056347 0.272044
C33   C     C_2   0.542902 0.990928 0.882603 -0.174029
C34   C     C_2   0.042902 0.490928 0.882603 -0.174028
C35   C     C_2   0.495293 0.967504 0.944333 -0.235859
C36   C     C_2   0.995293 0.467504 0.944333 -0.235859
N1    N     N_R   0.286078 0.813824 0.370288 0.213856
O27   O     O_R   0.298406 0.893803 0.370108 -0.342790
O28   O     O_R   0.267793 0.778565 0.285484 -0.321831
N2    N     N_R   0.248266 0.118407 0.495427 0.213716
O29   O     O_R   0.195017 0.087931 0.529523 -0.319202
O30   O     O_R   0.279323 0.076206 0.427885 -0.351838
N3    N     N_R   0.786074 0.313831 0.370287 0.213868
O31   O     O_R   0.767769 0.278583 0.285488 -0.321838
O32   O     O_R   0.798420 0.393804 0.370106 -0.342800
N4    N     N_R   0.748266 0.618407 0.495428 0.213715
O33   O     O_R   0.695017 0.587931 0.529524 -0.319204
O34   O     O_R   0.779323 0.576205 0.427886 -0.351837
N5    N     N_R   0.320979 0.740072 0.640063 0.204963
O35   O     O_R   0.371973 0.724516 0.695632 -0.335519
O36   O     O_R   0.265185 0.733704 0.681690 -0.335203
N6    N     N_R   0.349721 0.310004 0.548597 0.203307
O37   O     O_R   0.401981 0.326283 0.600422 -0.340216
O38   O     O_R   0.323172 0.369807 0.494578 -0.336318
N7    N     N_R   0.820979 0.240070 0.640059 0.204961
O39   O     O_R   0.871974 0.224510 0.695625 -0.335521
O40   O     O_R   0.765186 0.233702 0.681688 -0.335202
N8    N     N_R   0.849721 0.810004 0.548596 0.203308
O41   O     O_R   0.901981 0.826284 0.600421 -0.340215
O42   O     O_R   0.823172 0.869807 0.494577 -0.336318
N9    N     N_R   0.555499 0.911237 0.097934 0.230338
O43   O     O_R   0.573309 0.843871 0.050903 -0.319303
O44   O     O_R   0.591472 0.939723 0.172086 -0.393561
N10   N     N_R   0.055499 0.411237 0.097934 0.230337
O45   O     O_R   0.073309 0.343871 0.050903 -0.319304
O46   O     O_R   0.091472 0.439723 0.172087 -0.393562
C37   C     C_1   0.606660 0.009364 0.921994 0.322169
N11   N     N_1   0.657587 0.024147 0.953326 -0.083939
C38   C     C_1   0.106661 0.509364 0.921994 0.322168
N12   N     N_1   0.157587 0.524147 0.953326 -0.083938
C39   C     C_1   0.413514 0.057902 0.074365 0.213101
N13   N     N_1   0.374425 0.101985 0.040471 -0.104641
C40   C     C_1   0.913514 0.557901 0.074365 0.213102
N14   N     N_1   0.874425 0.601985 0.040471 -0.104642

loop_
_geom_bond_atom_site_label_1
_geom_bond_atom_site_label_2
_geom_bond_distance
_ccdc_geom_bond_type
Zn7   O2    1.923605 S    
N3    O31   1.301240 A    
N5    O35   1.301270 A    
O23   C8    1.280567 A    
Zn2   O10   1.922287 S    
C37   N11   1.157336 T    
Zn6   O1    1.935602 S    
H9    C35   1.087200 S    
N1    O27   1.301349 A    
Zn1   O25   1.923180 S    
C15   N7    1.443519 S    
N9    O44   1.301746 A    
Zn8   O5    1.925065 S    
C30   C32   1.355876 D    
C22   C26   1.338758 D    
N2    O30   1.301422 A    
C38   N12   1.157336 T    
O10   C8    1.272514 A    
C8    C15   1.463617 S    
Zn8   O2    1.935602 S    
C34   C36   1.348044 D    
O19   C4    1.273859 A    
C39   N13   1.157301 T    
Zn6   O14   1.920200 S    
N10   O45   1.301147 A    
C11   C29   1.462499 S    
C33   C37   1.449442 S    
O12   C10   1.279309 A    
Zn7   O6    1.926117 S    
N6    O38   1.301811 A    
O24   C7    1.268712 A    
Zn3   O11   1.924361 S    
C1    C22   1.463318 S    
Zn1   O7    1.920144 S    
O4    C2    1.274557 A    
C2    C21   1.465349 S    
O5    C3    1.276360 A    
Zn7   O15   1.926236 S    
Zn2   O26   1.923180 S    
C5    C14   1.461858 S    
C32   N10   1.443289 S    
O15   C12   1.269657 A    
H3    C27   1.087300 S    
N6    O37   1.301261 A    
Zn2   O9    1.920144 S    
C29   C31   1.355876 D    
C19   C25   1.474862 S    
H1    C25   1.087301 S    
N1    O28   1.301249 A    
O11   C9    1.279309 A    
C18   N2    1.443877 S    
O13   C11   1.269657 A    
C33   C35   1.348044 D    
C21   C25   1.340081 D    
H8    C24   1.086725 S    
O25   C9    1.280363 A    
Zn3   O17   1.919369 S    
Zn1   O1    1.939309 S    
N2    O29   1.301211 A    
Zn5   O4    1.926117 S    
Zn6   O3    1.925065 S    
C15   C19   1.359297 D    
C19   N3    1.444436 S    
Zn5   O1    1.923605 S    
Zn3   O1    1.936615 S    
O6    C4    1.274559 A    
N4    O34   1.301422 A    
N7    O39   1.301271 A    
C4    C23   1.465350 S    
C3    C24   1.463319 S    
O14   C11   1.274547 A    
O26   C10   1.280363 A    
Zn1   O8    1.922287 S    
H2    C26   1.087273 S    
N8    O42   1.301809 A    
C20   N4    1.443877 S    
O7    C5    1.275897 A    
C17   C27   1.474858 S    
C13   N5    1.443519 S    
C20   C26   1.473440 S    
N7    O40   1.301810 A    
O8    C6    1.272513 A    
C31   N9    1.443290 S    
C18   C28   1.473440 S    
N3    O32   1.301341 A    
C34   C38   1.449442 S    
C17   N1    1.444427 S    
Zn4   O2    1.936615 S    
Zn2   O2    1.939309 S    
C12   C30   1.462499 S    
Zn4   O19   1.919369 S    
Zn5   O22   1.927747 S    
C16   C20   1.357749 D    
C30   C40   1.450390 S    
Zn7   O24   1.927747 S    
Zn8   O23   1.923867 S    
C16   N8    1.443413 S    
Zn3   O18   1.924345 S    
C32   C36   1.480409 S    
C9    C33   1.470853 S    
C6    C13   1.463620 S    
N9    O43   1.301145 A    
H5    C21   1.086683 S    
C29   C39   1.450391 S    
H6    C22   1.086724 S    
O16   C12   1.274547 A    
O3    C1    1.276360 A    
H4    C28   1.087273 S    
H10   C36   1.087200 S    
C40   N14   1.157302 T    
N4    O33   1.301211 A    
C24   C28   1.338757 D    
O20   C3    1.277396 A    
C23   C27   1.340084 D    
O21   C6    1.280568 A    
C10   C34   1.470853 S    
Zn8   O16   1.920200 S    
N10   O46   1.301747 A    
O22   C5    1.268711 A    
C14   N6    1.443411 S    
C13   C17   1.359294 D    
N8    O41   1.301260 A    
O9    C7    1.275897 A    
C7    C16   1.461855 S    
O17   C2    1.273859 A    
Zn4   O12   1.924361 S    
H7    C23   1.086686 S    
O18   C1    1.277396 A    
Zn6   O21   1.923867 S    
Zn5   O13   1.926236 S    
N5    O36   1.301811 A    
Zn4   O20   1.924345 S    
C31   C35   1.480409 S    
C14   C18   1.357748 D    
