data_mof_unit_pretest_795.cif
_audit_creation_date              2012-12-11T17:16:58-0500
_audit_creation_method            fapswitch 2.2
_symmetry_space_group_name_H-M    P1
_symmetry_Int_Tables_number       1
_space_group_crystal_system       triclinic
_cell_length_a                    6.982511
_cell_length_b                    13.365092
_cell_length_c                    14.693072
_cell_angle_alpha                 99.024862
_cell_angle_beta                  90.061377
_cell_angle_gamma                 90.074534
_cell_volume                      1354.20837671

loop_
_atom_site_label
_atom_site_type_symbol
_atom_type_description
_atom_site_fract_x
_atom_site_fract_y
_atom_site_fract_z
_atom_type_partial_charge
O1    O     O_R   0.354890 0.151580 0.148210 -0.543937
O2    O     O_R   0.645110 0.848420 0.851790 -0.543937
O3    O     O_R   0.682370 0.152980 0.336770 -0.525305
O4    O     O_R   0.317630 0.847020 0.663230 -0.525305
O5    O     O_R   0.854980 0.348430 0.351800 -0.543600
O6    O     O_R   0.145020 0.651570 0.648200 -0.543600
C1    C     C_R   0.514434 0.132959 0.367499 0.807977
C2    C     C_R   0.485566 0.867041 0.632501 0.807977
O7    O     O_R   0.684450 0.139580 0.148000 -0.536705
O8    O     O_R   0.315550 0.860420 0.852000 -0.536705
O9    O     O_R   0.857080 0.334940 0.161680 -0.523270
O10   O     O_R   0.142920 0.665060 0.838320 -0.523270
C3    C     C_R   0.515513 0.112761 0.114150 0.771598
C4    C     C_R   0.484487 0.887239 0.885849 0.771599
O11   O     O_R   0.352790 0.165070 0.338330 -0.527646
O12   O     O_R   0.647210 0.834930 0.661670 -0.527646
O13   O     O_3   0.522170 0.314120 0.254710 -0.366266
O14   O     O_3   0.477830 0.685880 0.745290 -0.366266
V1    V     V_3+5 0.796120 0.238110 0.249130 1.611888
V2    V     V_3+5 0.203880 0.761890 0.750870 1.611888
O15   O     O_R   0.186930 0.347040 0.163240 -0.522566
O16   O     O_R   0.813070 0.652960 0.836760 -0.522566
C5    C     C_R   0.018450 0.367569 0.132991 0.818265
C6    C     C_R   0.981550 0.632431 0.867009 0.818264
O17   O     O_R   0.184850 0.360440 0.352010 -0.537810
O18   O     O_R   0.815150 0.639560 0.647990 -0.537810
C7    C     C_R   0.015946 0.387253 0.385849 0.765399
C8    C     C_R   0.984053 0.612747 0.614151 0.765399
V3    V     V_3+5 0.296410 0.261900 0.250880 1.611305
V4    V     V_3+5 0.703590 0.738100 0.749120 1.611305
O19   O     O_3   0.020490 0.185890 0.245290 -0.369194
O20   O     O_3   0.979510 0.814110 0.754710 -0.369194
C9    C     C_1   0.005285 0.466888 0.466303 -0.113262
C10   C     C_1   0.994715 0.533111 0.533697 -0.113262
C11   C     C_3   0.170335 0.542991 0.993036 0.424534
C12   C     C_3   0.829665 0.457009 0.006964 0.424534
C13   C     C_3   0.049535 0.551677 0.081473 0.351496
C14   C     C_3   0.950465 0.448323 0.918527 0.351496
C15   C     C_3   0.009598 0.437020 0.061853 -0.299991
C16   C     C_3   0.990402 0.562980 0.938147 -0.299991
C17   C     C_3   0.132017 0.427245 0.972954 -0.254794
C18   C     C_3   0.867983 0.572755 0.027046 -0.254794
H1    H     H_    0.235154 0.365937 0.948680 0.240349
H2    H     H_    0.764846 0.634063 0.051320 0.240349
C19   C     C_3   0.328543 0.042367 0.493361 0.296654
C20   C     C_3   0.671456 0.957633 0.506639 0.296654
C21   C     C_3   0.369116 0.926719 0.472304 -0.242228
C22   C     C_3   0.630884 0.073281 0.527696 -0.242228
H3    H     H_    0.272672 0.863129 0.445494 0.230040
H4    H     H_    0.727328 0.136871 0.554506 0.230040
C23   C     C_3   0.492336 0.936247 0.561059 -0.265955
C24   C     C_3   0.507664 0.063753 0.438941 -0.265954
C25   C     C_3   0.450483 0.050526 0.581589 0.372536
C26   C     C_3   0.549517 0.949474 0.418411 0.372535
C27   C     C_1   0.504912 0.033127 0.033701 -0.113785
C28   C     C_1   0.495088 0.966873 0.966299 -0.113785
Cl1   Cl    Cl    0.116432 0.620700 0.190636 -0.500722
Cl2   Cl    Cl    0.883568 0.379300 0.809364 -0.500722
Cl3   Cl    Cl    0.392476 0.606571 0.986165 -0.553415
Cl4   Cl    Cl    0.607523 0.393429 0.013835 -0.553415
Br1   Br    Br    0.093529 0.116999 0.487723 -0.450240
Br2   Br    Br    0.906471 0.883001 0.512277 -0.450240
Cl5   Cl    Cl    0.384638 0.117791 0.691551 -0.511348
Cl6   Cl    Cl    0.615362 0.882209 0.308449 -0.511348

loop_
_geom_bond_atom_site_label_1
_geom_bond_atom_site_label_2
_ccdc_geom_bond_type
C4    C28   S    
C27   C28   T    
O13   V3    S    
C12   C18   S    
O4    C2    A    
V1    O19   S    
C21   H3    S    
C7    C9    S    
O9    V1    S    
C20   Br2   S    
C11   C13   S    
C1    C24   S    
O3    C1    A    
O12   V4    S    
C11   Cl3   S    
C19   Br1   S    
C13   C18   S    
O7    C3    A    
O13   V1    S    
O5    C7    A    
O7    V1    S    
O6    C8    A    
O8    V2    S    
O3    V1    S    
O14   V4    S    
V4    O20   S    
C16   C18   S    
C8    C10   S    
C2    O12   A    
C14   Cl2   S    
C17   H1    S    
O10   V2    S    
C18   H2    S    
C11   C17   S    
C24   C26   S    
O11   V3    S    
C19   C21   S    
O17   V3    S    
C22   C25   S    
C20   C22   S    
C14   C17   S    
C15   C17   S    
O8    C4    A    
C21   C23   S    
C1    O11   A    
C19   C24   S    
O15   V3    S    
C20   C23   S    
C23   C25   S    
C20   C26   S    
O1    V3    S    
C9    C10   T    
C22   H4    S    
C2    C23   S    
C21   C26   S    
O18   V4    S    
O15   C5    A    
O16   C6    A    
O1    C3    A    
V2    O20   S    
O16   V4    S    
C12   C15   S    
C12   Cl4   S    
O5    V1    S    
O17   C7    A    
O6    V2    S    
O10   C6    A    
O18   C8    A    
O2    V4    S    
C12   C14   S    
C11   C16   S    
C13   C15   S    
C14   C16   S    
C25   Cl5   S    
C26   Cl6   S    
C5    C15   S    
O9    C5    A    
C6    C16   S    
O14   V2    S    
O2    C4    A    
C19   C25   S    
O4    V2    S    
C22   C24   S    
V3    O19   S    
C13   Cl1   S    
C3    C27   S    
