data_mof_unit_pretest_1470.cif
_audit_creation_date              2012-12-11T15:07:31-0500
_audit_creation_method            fapswitch 2.2
_symmetry_space_group_name_H-M    P1
_symmetry_Int_Tables_number       1
_space_group_crystal_system       triclinic
_cell_length_a                    21.855617
_cell_length_b                    7.192815
_cell_length_c                    18.524509
_cell_angle_alpha                 90.000388
_cell_angle_beta                  95.968228
_cell_angle_gamma                 90.000123
_cell_volume                      2896.33145528

loop_
_atom_site_label
_atom_site_type_symbol
_atom_type_description
_atom_site_fract_x
_atom_site_fract_y
_atom_site_fract_z
_atom_type_partial_charge
O1    O     O_R   0.449650 0.506500 0.414480 -0.540921
O2    O     O_R   0.550350 0.006500 0.585520 -0.540922
O3    O     O_R   0.432010 0.173150 0.560250 -0.555247
O4    O     O_R   0.567990 0.673150 0.439750 -0.555247
C1    C     C_R   0.416914 0.344977 0.582280 0.729696
C2    C     C_R   0.583086 0.844977 0.417720 0.729695
O5    O     O_R   0.442320 0.176650 0.413480 -0.529727
O6    O     O_R   0.557680 0.676650 0.586520 -0.529728
O7    O     O_R   0.560730 0.008380 0.437700 -0.503406
O8    O     O_R   0.439270 0.508380 0.562300 -0.503408
C3    C     C_R   0.428707 0.346113 0.387205 0.658243
C4    C     C_R   0.571293 0.846114 0.612795 0.658244
O9    O     O_3   0.538840 0.339860 0.508120 -0.372467
O10   O     O_3   0.461160 0.839860 0.491880 -0.372468
V1    V     V_3+5 0.492800 0.064220 0.498490 1.478663
V2    V     V_3+5 0.507200 0.564220 0.501510 1.478662
C5    C     C_R   0.868892 0.924240 0.689549 -0.026836
C6    C     C_R   0.131109 0.424276 0.310451 -0.026835
H1    H     H_    0.954399 0.979986 0.753045 0.149129
H2    H     H_    0.045603 0.480023 0.246955 0.149133
C7    C     C_R   0.883035 0.934483 0.821675 -0.052974
C8    C     C_R   0.116965 0.434487 0.178325 -0.052977
C9    C     C_R   0.582361 0.925539 0.744778 -0.020882
C10   C     C_R   0.417639 0.425513 0.255220 -0.020886
C11   C     C_R   0.619339 0.976872 0.807763 -0.082891
C12   C     C_R   0.380662 0.476833 0.192233 -0.082890
C13   C     C_R   0.683019 0.967986 0.811385 -0.216646
C14   C     C_R   0.316982 0.467955 0.188611 -0.216646
C15   C     C_R   0.713042 0.895340 0.753831 0.079265
C16   C     C_R   0.286958 0.395330 0.246169 0.079265
C17   C     C_R   0.676018 0.849347 0.688104 0.051946
C18   C     C_R   0.323982 0.349349 0.311896 0.051946
C19   C     C_R   0.779109 0.887214 0.757273 -0.018044
C20   C     C_R   0.220891 0.387215 0.242727 -0.018044
C21   C     C_R   0.806078 0.872390 0.690677 0.035918
C22   C     C_R   0.193922 0.372413 0.309324 0.035919
C23   C     C_R   0.769483 0.803296 0.628326 -0.012555
C24   C     C_R   0.230516 0.303329 0.371676 -0.012556
C25   C     C_R   0.705374 0.795399 0.627745 -0.189173
C26   C     C_R   0.294625 0.295421 0.372257 -0.189170
C27   C     C_R   0.819438 0.895450 0.823876 -0.054001
C28   C     C_R   0.180561 0.395439 0.176125 -0.054003
C29   C     C_R   0.906116 0.950274 0.754689 -0.237326
C30   C     C_R   0.093885 0.450302 0.245311 -0.237328
C31   C     C_R   0.610385 0.863068 0.683466 -0.154181
C32   C     C_R   0.389615 0.363062 0.316534 -0.154180
H3    H     H_    0.708006 0.029575 0.858691 0.144551
H4    H     H_    0.291995 0.529533 0.141303 0.144550
H5    H     H_    0.598937 0.032782 0.854005 0.172496
H6    H     H_    0.401064 0.532727 0.145989 0.172495
H7    H     H_    0.678239 0.746251 0.579263 0.148980
H8    H     H_    0.321760 0.246281 0.420740 0.148975
C33   C     C_R   0.635556 0.019852 0.321842 0.325595
C34   C     C_R   0.364443 0.519855 0.678157 0.325592
C35   C     C_R   0.630937 0.858845 0.365550 -0.108796
C36   C     C_R   0.369063 0.358846 0.634450 -0.108787
C37   C     C_R   0.673702 0.714487 0.361320 -0.231116
C38   C     C_R   0.326299 0.214485 0.638681 -0.231103
C39   C     C_R   0.721529 0.729969 0.316562 0.104278
C40   C     C_R   0.278472 0.229967 0.683439 0.104283
C41   C     C_R   0.725580 0.887958 0.272137 0.022429
C42   C     C_R   0.274420 0.387958 0.727862 0.022430
C43   C     C_R   0.681755 0.031995 0.273448 0.004166
C44   C     C_R   0.318244 0.531998 0.726551 0.004169
C45   C     C_R   0.765968 0.590098 0.316304 -0.109423
C46   C     C_R   0.234034 0.090092 0.683697 -0.109425
C47   C     C_R   0.814794 0.607428 0.273802 -0.186963
C48   C     C_R   0.185208 0.107422 0.726199 -0.186962
C49   C     C_R   0.819685 0.763231 0.228213 0.020689
C50   C     C_R   0.180316 0.263226 0.771787 0.020688
C51   C     C_R   0.773793 0.902331 0.226547 0.076644
C52   C     C_R   0.226207 0.402331 0.773452 0.076645
C53   C     C_R   0.776620 0.058055 0.180600 0.091041
C54   C     C_R   0.223379 0.558058 0.819399 0.091044
C55   C     C_R   0.731584 0.196441 0.180103 -0.168913
C56   C     C_R   0.268414 0.696447 0.819895 -0.168914
C57   C     C_R   0.684776 0.183799 0.225663 -0.165914
C58   C     C_R   0.315222 0.683806 0.774335 -0.165916
C59   C     C_R   0.869865 0.786539 0.185939 -0.044465
C60   C     C_R   0.130136 0.286533 0.814062 -0.044462
C61   C     C_R   0.870142 0.937594 0.136033 -0.088254
C62   C     C_R   0.129858 0.437592 0.863967 -0.088252
C63   C     C_R   0.823741 0.072659 0.134965 -0.213490
C64   C     C_R   0.176258 0.572662 0.865034 -0.213498
H9    H     H_    0.671127 0.592001 0.394980 0.160208
H10   H     H_    0.328875 0.091997 0.605020 0.160197
H11   H     H_    0.763550 0.467696 0.350032 0.145305
H12   H     H_    0.236452 0.967689 0.649970 0.145299
H13   H     H_    0.848117 0.496091 0.276956 0.122959
H14   H     H_    0.151886 0.996082 0.723046 0.122960
H15   H     H_    0.824019 0.189408 0.097960 0.141445
H16   H     H_    0.175979 0.689414 0.902038 0.141440
H17   H     H_    0.732675 0.315799 0.144537 0.138303
H18   H     H_    0.267322 0.815808 0.855460 0.138303
H19   H     H_    0.650821 0.293681 0.222184 0.166153
H20   H     H_    0.349176 0.793690 0.777813 0.166148
O11   O     O_R   0.060820 0.290050 0.937800 -0.526643
O12   O     O_R   0.939180 0.790050 0.062200 -0.526648
O13   O     O_R   0.057690 0.616620 0.086540 -0.520670
O14   O     O_R   0.942310 0.116620 0.913460 -0.520666
C65   C     C_R   0.072290 0.447699 0.112111 0.785485
C66   C     C_R   0.927711 0.947698 0.887889 0.785489
O15   O     O_R   0.068010 0.619890 0.939770 -0.553545
O16   O     O_R   0.931990 0.119890 0.060230 -0.553542
O17   O     O_R   0.949640 0.787940 0.914460 -0.542893
O18   O     O_R   0.050360 0.287940 0.085540 -0.542887
C67   C     C_R   0.082657 0.451103 0.916860 0.810172
C68   C     C_R   0.917342 0.951103 0.083139 0.810178
O19   O     O_3   0.961210 0.453080 0.991940 -0.385277
O20   O     O_3   0.038790 0.953080 0.008060 -0.385275
V3    V     V_3+5 0.007200 0.728820 0.001500 1.508778
V4    V     V_3+5 0.992800 0.228820 0.998500 1.508791
C69   C     C_2   0.924830 0.665835 0.199418 0.360576
H21   H     H_    0.920539 0.515891 0.202126 0.018326
O21   O     O_2   0.975896 0.735917 0.208825 -0.546053
C70   C     C_2   0.075173 0.165819 0.800585 0.360580
H22   H     H_    0.079466 0.015875 0.797881 0.018327
O22   O     O_2   0.024105 0.235892 0.791176 -0.546053
C71   C     C_2   0.797336 0.714788 0.566944 0.480488
H23   H     H_    0.844561 0.666296 0.574029 0.046969
O23   O     O_2   0.767588 0.691880 0.508091 -0.536379
C72   C     C_2   0.202662 0.214842 0.433062 0.480493
H24   H     H_    0.155437 0.166356 0.425979 0.046969
O24   O     O_2   0.232410 0.191944 0.491916 -0.536377
C73   C     C_2   0.896472 0.977182 0.622599 0.361581
H25   H     H_    0.945580 0.960719 0.620019 0.064846
O25   O     O_2   0.865567 0.050385 0.571662 -0.511735
C74   C     C_2   0.103531 0.477240 0.377400 0.361579
H26   H     H_    0.054423 0.460789 0.379980 0.064848
O26   O     O_2   0.134437 0.550449 0.428335 -0.511737
C75   C     C_2   0.797586 0.832248 0.893276 0.296189
H27   H     H_    0.760991 0.729972 0.892283 0.081077
O27   O     O_2   0.818662 0.896200 0.951623 -0.551410
C76   C     C_2   0.202411 0.332214 0.106726 0.296198
H28   H     H_    0.239005 0.229933 0.107722 0.081076
O28   O     O_2   0.181336 0.396151 0.048377 -0.551408
C77   C     C_2   0.514486 0.948173 0.742734 0.397374
H29   H     H_    0.484943 0.927783 0.692804 0.072865
O29   O     O_2   0.490543 0.991041 0.797082 -0.524466
C78   C     C_2   0.485515 0.448140 0.257263 0.397380
H30   H     H_    0.515056 0.427779 0.307196 0.072860
O30   O     O_2   0.509458 0.490972 0.202912 -0.524465
O31   O     O_3   0.593852 0.161987 0.326190 -0.640892
H31   H     H_    0.616908 0.280782 0.328085 0.271729
O32   O     O_3   0.406147 0.661992 0.673810 -0.640895
H32   H     H_    0.383089 0.780785 0.671912 0.271727

loop_
_geom_bond_atom_site_label_1
_geom_bond_atom_site_label_2
_ccdc_geom_bond_type
C46   C48   A    
C9    C31   A    
C13   C15   A    
C1    C36   S    
C25   H7    S    
O1    C3    A    
C2    C35   S    
O2    C4    A    
C74   H26   S    
C2    O7    A    
O32   H32   S    
C27   C75   S    
O18   V4    S    
C10   C78   S    
O5    C3    A    
C77   O29   D    
C8    C65   S    
C54   C56   A    
C56   C58   A    
O15   V3    S    
C21   C23   A    
C78   O30   D    
C12   H6    S    
C46   H12   S    
C53   C63   A    
C37   C39   A    
C38   C40   A    
O31   H31   S    
C15   C19   A    
C47   H13   S    
O12   C68   A    
C70   H22   S    
C66   O17   A    
C40   C42   A    
C49   C51   A    
O20   V3    S    
C42   C44   A    
C56   H18   S    
C7    C29   A    
C8    C30   A    
C60   C70   S    
C17   C25   A    
C14   C16   A    
C45   C47   A    
C20   C28   A    
C48   H14   S    
C36   C38   A    
C6    C74   S    
C41   C51   A    
O5    V1    S    
O17   V3    S    
C61   C68   S    
C40   C46   A    
O6    V2    S    
C24   C26   A    
C53   C55   A    
C44   C58   A    
C38   H10   S    
C12   C14   A    
C61   C63   A    
H1    C29   S    
C45   H11   S    
C33   C35   A    
C34   C36   A    
C39   C41   A    
C16   C20   A    
C50   C60   A    
C78   H30   S    
C60   C62   A    
O19   V4    S    
C58   H20   S    
C51   C53   A    
O11   V4    S    
C76   O28   D    
O3    C1    A    
C26   H8    S    
C57   H19   S    
C33   O31   S    
O4    V2    S    
C5    C29   A    
C6    C30   A    
C23   C71   S    
O6    C4    A    
O13   V3    S    
O14   C66   A    
C42   C52   A    
O1    V2    S    
C62   C67   S    
O2    V1    S    
C55   C57   A    
C24   C72   S    
C71   O23   D    
C34   O32   S    
C7    C27   A    
C7    C66   S    
C52   C54   A    
O13   C65   A    
H2    C30   S    
C62   C64   A    
C35   C37   A    
C73   H25   S    
C49   C59   A    
O4    C2    A    
C72   O24   D    
C75   H27   S    
O16   C68   A    
O3    V1    S    
C55   H17   S    
O16   V4    S    
C69   H21   S    
C43   C57   A    
C13   H3    S    
C65   O18   A    
C14   H4    S    
O12   V3    S    
C18   C32   A    
C9    C77   S    
C41   C43   A    
C10   C12   A    
C54   C64   A    
C4    C31   S    
C75   O27   D    
C74   O26   D    
O15   C67   A    
C71   H23   S    
O14   V4    S    
C76   H28   S    
C11   C13   A    
C63   H15   S    
C77   H29   S    
C59   C61   A    
C28   C76   S    
C19   C27   A    
C59   C69   S    
O7    V1    S    
C10   C32   A    
C1    O8    A    
C15   C17   A    
O8    V2    S    
C39   C45   A    
C16   C18   A    
C33   C43   A    
C5    C73   S    
C8    C28   A    
C34   C44   A    
C22   C24   A    
C19   C21   A    
C70   O22   D    
C20   C22   A    
C18   C26   A    
C11   H5    S    
O11   C67   A    
C9    C11   A    
C5    C21   A    
C23   C25   A    
C17   C31   A    
O9    V2    S    
C73   O25   D    
C48   C50   A    
O10   V1    S    
C3    C32   S    
C50   C52   A    
C64   H16   S    
C47   C49   A    
C72   H24   S    
C6    C22   A    
C37   H9    S    
C69   O21   D    
