data_mof_unit_pretest_740.cif
_audit_creation_date              2012-12-10T18:55:58-0500
_audit_creation_method            fapswitch 2.2
_symmetry_space_group_name_H-M    P1
_symmetry_Int_Tables_number       1
_space_group_crystal_system       triclinic
_cell_length_a                    10.717406
_cell_length_b                    9.82583
_cell_length_c                    14.909478
_cell_angle_alpha                 92.244747
_cell_angle_beta                  90.080257
_cell_angle_gamma                 90.018001
_cell_volume                      1568.87202866

loop_
_atom_site_label
_atom_site_type_symbol
_atom_type_description
_atom_site_fract_x
_atom_site_fract_y
_atom_site_fract_z
_atom_type_partial_charge
C1    C     C_R   0.259824 0.499988 0.499909 0.882602
C2    C     C_R   0.936172 0.622518 0.516872 -0.166349
C3    C     C_R   0.936016 0.377475 0.483264 -0.150063
C4    C     C_R   0.063984 0.622525 0.516734 -0.150086
C5    C     C_R   0.393715 0.566320 0.094697 0.333478
C6    C     C_R   0.606221 0.433540 0.905299 0.333455
C7    C     C_R   0.475213 0.631121 0.911161 0.325834
C8    C     C_R   0.524813 0.368807 0.088865 0.325832
C9    C     C_R   0.404252 0.576620 0.188339 0.317218
C10   C     C_R   0.595700 0.423291 0.811659 0.317182
C11   C     C_R   0.460630 0.623661 0.817992 0.314551
C12   C     C_R   0.740176 0.500012 0.500091 0.882609
C13   C     C_R   0.539444 0.376340 0.182027 0.314539
C14   C     C_R   0.485772 0.487352 0.230714 -0.264388
C15   C     C_R   0.514247 0.512636 0.769290 -0.264390
C16   C     C_R   0.479590 0.483821 0.046123 -0.090321
C17   C     C_R   0.520373 0.516057 0.953884 -0.090367
C18   C     C_R   0.872590 0.500000 0.500109 -0.007372
C19   C     C_R   0.127410 0.500000 0.499890 -0.007371
C20   C     C_R   0.498585 0.496953 0.327333 1.036552
C21   C     C_R   0.501423 0.503047 0.672670 1.036475
C22   C     C_R   0.579114 0.075249 0.554730 -0.038590
C23   C     C_R   0.420886 0.924750 0.445269 -0.038574
C24   C     C_R   0.420931 0.068753 0.445240 -0.038562
C25   C     C_R   0.579068 0.931247 0.554760 -0.038554
C26   C     C_R   0.063828 0.377482 0.483127 -0.166349
Cl1   Cl    Cl    0.254102 0.620502 0.043113 -0.484486
Cl2   Cl    Cl    0.745839 0.379321 0.956859 -0.484400
Cl3   Cl    Cl    0.472584 0.792718 0.968402 -0.455802
Cl4   Cl    Cl    0.527423 0.207170 0.031678 -0.455783
H1    H     H_    0.642354 0.132507 0.598433 0.168690
H2    H     H_    0.704120 0.264485 0.798649 0.391883
H3    H     H_    0.348079 0.779775 0.816990 0.394839
H4    H     H_    0.652071 0.220283 0.183042 0.394848
H5    H     H_    0.357646 0.867493 0.401567 0.168685
H6    H     H_    0.357796 0.120844 0.401491 0.143195
H7    H     H_    0.642203 0.879156 0.598509 0.143205
H8    H     H_    0.112440 0.282247 0.469434 0.161327
H9    H     H_    0.887560 0.717753 0.530565 0.161328
H10   H     H_    0.887278 0.282225 0.469675 0.168246
H11   H     H_    0.112722 0.717775 0.530324 0.168240
H12   H     H_    0.295643 0.735289 0.201328 0.391921
N1    N     N_R   0.500000 0.857200 0.500000 -0.091155
N2    N     N_R   0.500000 0.142800 0.500000 -0.091149
O1    O     O_R   0.316770 0.614620 0.499990 -0.619786
O2    O     O_3   0.667822 0.333887 0.759922 -0.729257
O3    O     O_3   0.396087 0.722378 0.773238 -0.704923
O4    O     O_3   0.604079 0.277699 0.226792 -0.704938
O5    O     O_R   0.683230 0.385380 0.500010 -0.619772
O6    O     O_R   0.683230 0.614620 0.500010 -0.644069
O7    O     O_R   0.316770 0.385380 0.499990 -0.644067
O8    O     O_R   0.499990 0.614660 0.369060 -0.587132
O9    O     O_R   0.500010 0.385340 0.630940 -0.587127
O10   O     O_R   0.500010 0.614660 0.630940 -0.576835
O11   O     O_R   0.499990 0.385340 0.369060 -0.576867
O12   O     O_3   0.332099 0.666000 0.240071 -0.729301
Zn1   Zn    Zn3+2 0.500000 0.653120 0.500000 1.010727
Zn2   Zn    Zn3+2 0.500000 0.346880 0.500000 1.010723

loop_
_geom_bond_atom_site_label_1
_geom_bond_atom_site_label_2
_ccdc_geom_bond_type
C6    C10   A    
C13   O4    S    
C2    C4    A    
C9    C14   A    
C10   O2    S    
C8    C13   A    
C7    Cl3   S    
O9    Zn2   S    
C2    C18   A    
C11   O3    S    
O6    Zn1   S    
C23   C24   A    
C8    Cl4   S    
C25   N1    A    
H3    O3    S    
C12   O5    A    
C8    C16   A    
O7    Zn2   S    
C13   C14   A    
C7    C11   A    
C1    O7    A    
C1    O1    A    
C5    C9    A    
C24   H6    S    
C11   C15   A    
C20   O11   A    
C24   N2    A    
C21   O9    A    
C3    H10   S    
C23   H5    S    
C10   C15   A    
C21   O10   A    
O1    Zn1   S    
C6    Cl2   S    
C1    C19   S    
H4    O4    S    
C22   H1    S    
N1    Zn1   S    
O8    Zn1   S    
C6    C17   A    
C14   C20   S    
C15   C21   S    
C23   N1    A    
C3    C18   A    
C20   O8    A    
C4    H11   S    
O11   Zn2   S    
C12   C18   S    
C9    O12   S    
C19   C26   A    
C26   H8    S    
C5    C16   A    
H12   O12   S    
C5    Cl1   S    
C4    C19   A    
H2    O2    S    
C2    H9    S    
O10   Zn1   S    
C3    C26   A    
C22   N2    A    
O5    Zn2   S    
C16   C17   S    
N2    Zn2   S    
C12   O6    A    
C7    C17   A    
C22   C25   A    
C25   H7    S    
