data_mof_unit_pretest_888.cif
_audit_creation_date              2012-12-10T18:37:57-0500
_audit_creation_method            fapswitch 2.2
_symmetry_space_group_name_H-M    P1
_symmetry_Int_Tables_number       1
_space_group_crystal_system       triclinic
_cell_length_a                    14.951886
_cell_length_b                    15.412598
_cell_length_c                    27.5379
_cell_angle_alpha                 89.802553
_cell_angle_beta                  104.775581
_cell_angle_gamma                 82.212997
_cell_volume                      6074.8190241

loop_
_atom_site_label
_atom_site_type_symbol
_atom_type_description
_atom_site_fract_x
_atom_site_fract_y
_atom_site_fract_z
_atom_type_partial_charge
C1    C     C_R   0.441237 0.662599 0.492602 0.894884
C2    C     C_R   0.511833 0.619379 0.130514 0.008903
C3    C     C_3   0.235270 0.400618 0.272764 -0.817660
C4    C     C_3   0.561469 0.825957 0.882108 0.085388
C5    C     C_3   0.493173 0.841908 0.829911 -0.318896
C6    C     C_3   0.442696 0.935777 0.822707 -0.969716
C7    C     C_3   0.302877 0.335128 0.094962 0.118379
C8    C     C_3   0.242440 0.286697 0.119770 -0.283593
C9    C     C_3   0.271649 0.187716 0.121544 -0.992113
C10   C     C_3   0.321855 0.707238 0.235850 0.090938
C11   C     C_3   0.277394 0.760942 0.272468 -0.380242
C12   C     C_3   0.284773 0.858136 0.267445 -0.952606
C13   C     C_R   0.498574 0.513586 0.645969 -0.196189
C14   C     C_3   0.689813 0.385280 0.776310 0.054510
C15   C     C_3   0.638852 0.337882 0.807772 -0.339608
C16   C     C_3   0.678107 0.240821 0.816248 -0.948934
C17   C     C_R   0.490690 0.512519 0.352569 -0.209103
C18   C     C_R   0.509759 0.626073 0.027504 0.092720
C19   C     C_R   0.405321 0.513623 0.961238 0.094814
C20   C     C_R   0.396971 0.520145 0.011190 -0.023009
C21   C     C_R   0.509631 0.627118 0.975899 -0.022110
C22   C     C_R   0.453114 0.572436 0.044811 0.073550
C23   C     C_R   0.460968 0.567892 0.943651 0.071919
C24   C     C_R   0.566497 0.675236 0.062893 -0.221438
C25   C     C_R   0.558627 0.337367 0.508467 0.905516
C26   C     C_R   0.362912 0.451537 0.928795 -0.226445
C27   C     C_R   0.567148 0.672008 0.113290 -0.151106
C28   C     C_R   0.373089 0.444420 0.880388 -0.153140
C29   C     C_R   0.500390 0.502083 0.593823 0.930882
C30   C     C_R   0.498428 0.500923 0.405982 0.911997
C31   C     C_R   0.557526 0.684793 0.955439 -0.324760
C32   C     C_R   0.334675 0.475084 0.028830 -0.327534
C33   C     C_R   0.404532 0.755959 0.492211 -0.252524
C34   C     C_R   0.594021 0.244662 0.522621 -0.255068
C35   C     C_R   0.278488 0.877652 0.484475 0.387900
C36   C     C_R   0.469675 0.561264 0.893664 -0.125277
C37   C     C_R   0.712747 0.128309 0.568398 0.389854
C38   C     C_R   0.307928 0.788726 0.477832 0.363169
C39   C     C_R   0.688477 0.213879 0.546859 0.389871
C40   C     C_R   0.469452 0.812314 0.510663 -0.343075
C41   C     C_R   0.527454 0.187993 0.517184 -0.336108
C42   C     C_R   0.442056 0.899861 0.518385 0.028863
C43   C     C_R   0.550278 0.102711 0.537420 0.035277
C44   C     C_R   0.345604 0.933481 0.503933 -0.013642
C45   C     C_R   0.644926 0.070709 0.560522 -0.030861
C46   C     C_R   0.509386 0.955883 0.537548 0.123858
C47   C     C_R   0.453561 0.570132 0.096364 -0.122264
C48   C     C_R   0.481106 0.046968 0.531840 0.120489
C49   C     C_R   0.384781 0.079296 0.520484 -0.255589
C50   C     C_R   0.603964 0.924427 0.561404 -0.235350
C51   C     C_R   0.318247 0.022828 0.508424 -0.171095
C52   C     C_R   0.670038 0.981520 0.574075 -0.187069
C53   C     C_R   0.532926 0.604641 0.825813 0.592500
C54   C     C_R   0.404764 0.511965 0.165927 0.594277
C55   C     C_R   0.849256 0.616052 0.587356 0.428337
C56   C     C_R   0.150319 0.383634 0.412846 0.434040
C57   C     C_R   0.756161 0.602811 0.568335 -0.143108
C58   C     C_R   0.522464 0.616435 0.874912 -0.162390
C59   C     C_R   0.244306 0.394284 0.432989 -0.164630
C60   C     C_R   0.792022 0.518798 0.502407 -0.046189
C61   C     C_R   0.206897 0.486687 0.495512 -0.032248
C62   C     C_R   0.886386 0.532084 0.517210 -0.109828
C63   C     C_R   0.112557 0.473852 0.480853 -0.117791
C64   C     C_R   0.915904 0.579123 0.561733 -0.036027
C65   C     C_R   0.083318 0.425023 0.437057 -0.073905
C66   C     C_R   0.951690 0.498234 0.489841 0.044196
C67   C     C_R   0.047033 0.509171 0.507848 0.065769
C68   C     C_R   0.074789 0.552426 0.553249 -0.346700
C69   C     C_R   0.397159 0.517464 0.114015 -0.152916
C70   C     C_R   0.923962 0.455126 0.444447 -0.358957
C71   C     C_R   0.011592 0.585038 0.580709 0.509132
C72   C     C_R   0.987117 0.420721 0.417885 0.516697
C73   C     C_R   0.437443 0.490409 0.813941 0.474217
C74   C     C_R   0.515167 0.613318 0.181625 0.484569
C75   C     C_R   0.578845 0.498167 0.734786 0.558338
C76   C     C_R   0.398055 0.574344 0.271476 0.551873
C77   C     C_R   0.580449 0.490181 0.684356 -0.454118
C78   C     C_R   0.405823 0.553629 0.321674 -0.407192
C79   C     C_R   0.416025 0.552188 0.657522 0.516603
C80   C     C_R   0.561470 0.682192 0.905294 0.540702
C81   C     C_R   0.567918 0.488688 0.332609 0.524802
C82   C     C_R   0.415392 0.562756 0.707507 -0.298381
C83   C     C_R   0.558644 0.505948 0.281666 -0.291895
C84   C     C_R   0.495791 0.535814 0.745943 0.158637
C85   C     C_R   0.473900 0.547591 0.251013 0.125975
C86   C     C_3   0.328132 0.667419 0.608666 -0.308856
C87   C     C_3   0.659277 0.360622 0.362778 -0.380736
C88   C     C_3   0.790197 0.272140 0.510640 0.125384
C89   C     C_3   0.870526 0.198004 0.512451 -0.348818
C90   C     C_3   0.921175 0.212672 0.472203 -0.938108
C91   C     C_R   0.336317 0.470924 0.079595 0.511758
C92   C     C_3   0.230063 0.718628 0.410174 0.107754
C93   C     C_3   0.145170 0.670760 0.391729 -0.303475
C94   C     C_3   0.120455 0.661936 0.334913 -1.011601
C95   C     C_3   0.146273 0.938811 0.425464 0.073417
C96   C     C_3   0.069252 0.016067 0.423065 -0.334730
C97   C     C_3   0.022505 0.048737 0.368980 -0.927685
C98   C     C_3   0.813247 0.101738 0.646787 0.071006
C99   C     C_3   0.828637 0.192846 0.666729 -0.300962
C100  C     C_3   0.852350 0.191569 0.724020 -1.003421
C101  C     C_3   0.113650 0.570364 0.660509 0.096816
C102  C     C_R   0.426222 0.498488 0.862513 0.012589
C103  C     C_3   0.093961 0.576652 0.712297 -0.362815
C104  C     C_3   0.174888 0.529332 0.753262 -0.895189
C105  C     C_3   0.938019 0.440905 0.332201 0.124734
C106  C     C_3   0.836465 0.485324 0.316584 -0.374516
C107  C     C_3   0.818459 0.544479 0.269559 -0.930943
C108  C     C_3   0.836559 0.653933 0.668002 0.094229
C109  C     C_3   0.763448 0.730884 0.673102 -0.409172
C110  C     C_3   0.716490 0.711570 0.714321 -0.836107
C111  C     C_3   0.176890 0.323386 0.337349 0.076660
C112  C     C_3   0.176387 0.411652 0.310728 -0.451389
H1    H     H_    0.457108 0.210628 0.495402 0.193120
H2    H     H_    0.852557 0.447311 0.427418 0.186044
H3    H     H_    0.394866 0.721115 0.240196 0.154174
H4    H     H_    0.202511 0.752663 0.264506 0.238644
H5    H     H_    0.312622 0.737054 0.311692 0.211706
H6    H     H_    0.359249 0.868378 0.276217 0.272677
H7    H     H_    0.251184 0.894980 0.294237 0.256977
H8    H     H_    0.248816 0.884056 0.228688 0.267883
H9    H     H_    0.765680 0.374993 0.795350 0.176874
H10   H     H_    0.682684 0.355424 0.738966 0.131183
H11   H     H_    0.645787 0.368742 0.844736 0.236036
H12   H     H_    0.563602 0.343753 0.787968 0.250768
H13   H     H_    0.351938 0.591766 0.716598 0.157599
H14   H     H_    0.667722 0.208134 0.779752 0.262927
H15   H     H_    0.641027 0.208996 0.840015 0.270413
H16   H     H_    0.753799 0.232413 0.835615 0.266581
H17   H     H_    0.616998 0.486189 0.265708 0.174223
H18   H     H_    0.346582 0.572961 0.337020 0.181121
H19   H     H_    0.645052 0.464627 0.675170 0.185534
H20   H     H_    0.612846 0.709999 0.138959 0.186804
H21   H     H_    0.339748 0.395285 0.857153 0.187162
H22   H     H_    0.613968 0.714954 0.053408 0.144097
H23   H     H_    0.324243 0.404672 0.940258 0.138447
H24   H     H_    0.592012 0.734310 0.977125 0.149457
H25   H     H_    0.542629 0.787057 0.518139 0.198604
H26   H     H_    0.282264 0.443110 0.003900 0.156206
H27   H     H_    0.245412 0.050391 0.500332 0.178753
H28   H     H_    0.741688 0.954690 0.592178 0.184913
H29   H     H_    0.389965 0.682785 0.596478 0.157529
H30   H     H_    0.319008 0.707209 0.641147 0.163385
H31   H     H_    0.265580 0.686493 0.576954 0.222675
H32   H     H_    0.652728 0.336287 0.324179 0.170906
H33   H     H_    0.605644 0.337639 0.379350 0.154698
H34   H     H_    0.728942 0.331758 0.386264 0.196989
H35   H     H_    0.817679 0.335342 0.510354 0.169130
H36   H     H_    0.359511 0.148085 0.521998 0.156857
H37   H     H_    0.734503 0.271747 0.474897 0.101648
H38   H     H_    0.921321 0.194408 0.549983 0.255847
H39   H     H_    0.842649 0.134574 0.506294 0.237135
H40   H     H_    0.871929 0.217241 0.434222 0.267740
H41   H     H_    0.977239 0.156933 0.473891 0.267862
H42   H     H_    0.953665 0.273617 0.478882 0.277311
H43   H     H_    0.292528 0.677221 0.403719 0.135306
H44   H     H_    0.219597 0.780869 0.387574 0.096503
H45   H     H_    0.160169 0.604355 0.410161 0.223239
H46   H     H_    0.083961 0.707236 0.402302 0.236052
H47   H     H_    0.628127 0.856163 0.571939 0.140212
H48   H     H_    0.098846 0.727746 0.315743 0.268627
H49   H     H_    0.061364 0.623484 0.323494 0.264413
H50   H     H_    0.181007 0.627553 0.322996 0.275658
H51   H     H_    0.113845 0.885741 0.403535 0.168526
H52   H     H_    0.199160 0.960461 0.407526 0.108573
H53   H     H_    0.015630 0.995723 0.440526 0.239374
H54   H     H_    0.099453 0.070802 0.444343 0.216135
H55   H     H_    0.074561 0.071099 0.351092 0.266543
H56   H     H_    0.967207 0.104797 0.368714 0.279026
H57   H     H_    0.989966 0.995761 0.346873 0.258245
H58   H     H_    0.233808 0.530101 0.524328 0.191733
H59   H     H_    0.875378 0.054051 0.665318 0.173512
H60   H     H_    0.752643 0.079839 0.657670 0.120850
H61   H     H_    0.886633 0.215551 0.653936 0.247795
H62   H     H_    0.764161 0.240105 0.651856 0.227607
H63   H     H_    0.795554 0.168347 0.737591 0.267318
H64   H     H_    0.860415 0.258775 0.737193 0.264322
H65   H     H_    0.918851 0.147713 0.740181 0.273992
H66   H     H_    0.181778 0.593071 0.662266 0.188996
H67   H     H_    0.118835 0.499811 0.650835 0.124595
H68   H     H_    0.081245 0.646621 0.721606 0.242725
H69   H     H_    0.764014 0.479542 0.471606 0.160820
H70   H     H_    0.030313 0.546322 0.711407 0.211147
H71   H     H_    0.191667 0.460008 0.743867 0.287283
H72   H     H_    0.155430 0.530450 0.789589 0.258426
H73   H     H_    0.237500 0.562758 0.757754 0.268996
H74   H     H_    0.952608 0.402997 0.300175 0.177280
H75   H     H_    0.986358 0.491409 0.339198 0.109462
H76   H     H_    0.789338 0.434353 0.308904 0.252451
H77   H     H_    0.820398 0.525724 0.347394 0.247993
H78   H     H_    0.865197 0.595843 0.276366 0.265291
H79   H     H_    0.744955 0.576996 0.259665 0.307554
H80   H     H_    0.299472 0.364241 0.417328 0.149946
H81   H     H_    0.830542 0.505351 0.237449 0.258933
H82   H     H_    0.894089 0.648708 0.702934 0.159405
H83   H     H_    0.807770 0.590537 0.666238 0.114019
H84   H     H_    0.797833 0.790514 0.682218 0.232693
H85   H     H_    0.709029 0.744872 0.637159 0.210366
H86   H     H_    0.679012 0.653865 0.705024 0.277011
H87   H     H_    0.665098 0.768949 0.717637 0.262081
H88   H     H_    0.769296 0.698414 0.751016 0.275562
H89   H     H_    0.145576 0.279157 0.308009 0.171524
H90   H     H_    0.248559 0.289369 0.354215 0.122107
H91   H     H_    0.702437 0.630207 0.585852 0.148600
H92   H     H_    0.103627 0.438778 0.290696 0.220385
H93   H     H_    0.204602 0.459918 0.338218 0.227311
H94   H     H_    0.309429 0.377007 0.292158 0.259637
H95   H     H_    0.231566 0.464707 0.253314 0.311959
H96   H     H_    0.208629 0.353240 0.244203 0.247924
H97   H     H_    0.613661 0.872089 0.886013 0.167575
H98   H     H_    0.523900 0.842209 0.911783 0.110370
H99   H     H_    0.532060 0.829627 0.800616 0.258328
H100  H     H_    0.440445 0.796131 0.825081 0.209609
H101  H     H_    0.401817 0.949229 0.851015 0.266404
H102  H     H_    0.146222 0.560898 0.569585 0.180773
H103  H     H_    0.393992 0.945216 0.784603 0.272394
H104  H     H_    0.493782 0.982973 0.826449 0.267336
H105  H     H_    0.377312 0.318153 0.116744 0.139758
H106  H     H_    0.294963 0.312937 0.055844 0.115052
H107  H     H_    0.249062 0.308911 0.158730 0.246645
H108  H     H_    0.168027 0.302355 0.098339 0.222367
H109  H     H_    0.264141 0.163759 0.082907 0.267334
H110  H     H_    0.226390 0.154630 0.139719 0.268963
H111  H     H_    0.345373 0.170439 0.143675 0.269348
H112  H     H_    0.282652 0.729196 0.196849 0.170044
N1    N     N_R   0.490253 0.542827 0.796788 -0.330596
N2    N     N_R   0.463617 0.558861 0.198247 -0.334683
N3    N     N_R   0.731710 0.552720 0.528410 -0.116959
N4    N     N_R   0.268290 0.447280 0.471590 -0.126151
O1    O     O_R   0.383110 0.605620 0.485680 -0.579705
O2    O     O_2   0.355725 0.458755 0.184439 -0.527382
O3    O     O_2   0.569715 0.661096 0.214610 -0.593524
O4    O     O_2   0.396207 0.430238 0.783905 -0.594337
O5    O     O_3   0.334943 0.577160 0.620146 -0.629965
O6    O     O_3   0.653613 0.452599 0.363048 -0.612421
O7    O     O_3   0.756378 0.268719 0.554081 -0.628694
O8    O     O_3   0.241201 0.733676 0.461939 -0.605616
O9    O     O_3   0.184008 0.908247 0.476075 -0.615872
O10   O     O_3   0.804593 0.100334 0.594346 -0.647713
O11   O     O_3   0.042654 0.625940 0.625581 -0.590924
O12   O     O_R   0.616890 0.394380 0.514320 -0.581524
O13   O     O_3   0.952423 0.380666 0.373411 -0.599848
O14   O     O_3   0.874499 0.670984 0.627208 -0.588406
O15   O     O_3   0.121380 0.330455 0.372366 -0.608984
O16   O     O_3   0.610747 0.739660 0.887532 -0.592604
O17   O     O_3   0.273086 0.426195 0.094688 -0.595965
O18   O     O_3   0.314597 0.617346 0.241935 -0.632912
O19   O     O_3   0.659308 0.476725 0.773325 -0.619585
O20   O     O_R   0.531900 0.639510 0.503910 -0.622793
O21   O     O_R   0.468100 0.360490 0.496090 -0.623453
O22   O     O_R   0.425620 0.483050 0.562130 -0.567481
O23   O     O_R   0.574380 0.516950 0.437870 -0.574616
O24   O     O_R   0.574410 0.516930 0.580360 -0.632510
O25   O     O_R   0.425590 0.483070 0.419640 -0.640855
O26   O     O_2   0.584919 0.654082 0.806938 -0.510586
Zn1   Zn    Zn3+2 0.400660 0.477380 0.487830 0.953260
Zn2   Zn    Zn3+2 0.599340 0.522620 0.512170 0.958654

loop_
_geom_bond_atom_site_label_1
_geom_bond_atom_site_label_2
_ccdc_geom_bond_type
C73   N1    A    
C63   C65   A    
C93   C94   S    
C14   H10   S    
C55   O14   S    
C101  O11   S    
C18   C21   A    
C88   H37   S    
C34   C39   A    
C109  H85   S    
C111  C112  S    
C35   O9    S    
C24   C27   A    
C111  H89   S    
C91   O17   S    
O23   Zn2   S    
C1    C33   S    
C7    C8    S    
C108  C109  S    
C104  H73   S    
C21   C31   A    
C87   O6    S    
C15   H11   S    
C18   C24   A    
C3    H96   S    
C13   C29   S    
C87   H34   S    
C76   C78   A    
C112  H93   S    
C83   H17   S    
C36   C58   A    
C77   H19   S    
C5    C6    S    
C98   C99   S    
C75   C84   A    
C32   C91   A    
C110  H86   S    
C106  C107  S    
C100  H65   S    
C56   C65   A    
C103  H70   S    
C6    H101  S    
C60   H69   S    
C4    H98   S    
C30   O23   A    
C109  H84   S    
C36   C102  A    
C103  H68   S    
C95   O9    S    
C64   C71   A    
C61   C63   A    
C19   C26   A    
C47   C69   A    
C62   C64   A    
C101  H66   S    
C103  C104  S    
C53   N1    A    
C12   H8    S    
C7    H106  S    
C25   O21   A    
C9    H110  S    
C54   N2    A    
C6    H103  S    
C19   C20   A    
C8    C9    S    
C49   C51   A    
C100  H64   S    
C50   C52   A    
C17   C78   A    
C2    C27   A    
C10   O18   S    
C87   H32   S    
C90   H42   S    
C68   H102  S    
C43   C48   A    
C94   H50   S    
N4    Zn1   S    
C2    C74   A    
C10   H112  S    
C25   C34   S    
O24   Zn2   S    
C98   H60   S    
C61   H58   S    
C40   C42   A    
C66   C67   A    
C101  C103  S    
C14   H9    S    
C55   C64   A    
C17   C30   S    
C41   C43   A    
C59   H80   S    
C65   C72   A    
C34   C41   A    
C42   C44   A    
C84   N1    S    
C111  H90   S    
C105  O13   S    
O1    Zn1   S    
C86   H31   S    
C99   H62   S    
C63   C67   A    
C5    H99   S    
C13   C77   A    
O12   Zn2   S    
C33   C40   A    
C15   H12   S    
C62   C66   A    
C110  H88   S    
C28   H21   S    
C86   O5    S    
C29   O24   A    
C31   C80   A    
C35   C38   A    
C79   O5    S    
C28   C102  A    
C90   H40   S    
C109  C110  S    
O25   Zn1   S    
C31   H24   S    
C80   O16   S    
C45   C52   A    
C97   H55   S    
C92   O8    S    
C70   H2    S    
C4    H97   S    
C67   C68   A    
C49   H36   S    
C90   H41   S    
C7    H105  S    
C105  H74   S    
C19   C23   A    
C82   H13   S    
C32   H26   S    
C8    H108  S    
C9    H109  S    
C101  H67   S    
C12   H7    S    
C43   C45   A    
C9    H111  S    
C99   C100  S    
C99   H61   S    
C3    C112  S    
C53   C58   A    
C75   O19   S    
C96   C97   S    
C57   H91   S    
C100  H63   S    
C14   C15   S    
C30   O25   A    
O20   Zn2   S    
C92   H44   S    
C108  H83   S    
C93   H45   S    
C35   C44   A    
C16   H16   S    
C94   H49   S    
C40   H25   S    
C12   H6    S    
C98   H59   S    
C44   C51   A    
C48   C49   A    
C83   C85   A    
C56   O15   S    
C20   C22   A    
O21   Zn1   S    
C82   C84   A    
C21   C23   A    
C42   C46   A    
C2    C47   A    
C96   H54   S    
C61   N4    A    
C112  H92   S    
C37   C45   A    
C11   H5    S    
C107  H81   S    
C13   C79   A    
C86   H30   S    
C14   O19   S    
C20   C32   A    
C24   H22   S    
O22   Zn1   S    
C88   O7    S    
C7    O17   S    
C89   H38   S    
C94   H48   S    
C111  O15   S    
C87   H33   S    
C104  H72   S    
C110  H87   S    
C18   C22   A    
C3    H94   S    
C53   O26   S    
C72   O13   S    
C76   O18   S    
C38   O8    S    
C41   H1    S    
C4    C5    S    
C1    O20   A    
C81   C83   A    
C79   C82   A    
C27   H20   S    
C11   C12   S    
C5    H100  S    
N3    Zn2   S    
C98   O10   S    
C58   C80   A    
C50   H47   S    
C97   H56   S    
C108  O14   S    
C105  C106  S    
C46   C50   A    
C26   C28   A    
C33   C38   A    
C25   O12   A    
C56   C59   A    
C11   H4    S    
C95   H51   S    
C74   O3    S    
C60   N3    A    
C3    H95   S    
C29   O22   A    
C105  H75   S    
C55   C57   A    
C78   H18   S    
C97   H57   S    
C106  H76   S    
C74   N2    A    
C8    H107  S    
C95   H52   S    
C60   C62   A    
C39   O7    S    
C37   O10   S    
C66   C70   A    
C54   C69   A    
C16   H14   S    
C68   C71   A    
C59   N4    A    
C107  H78   S    
C92   C93   S    
C52   H28   S    
C88   H35   S    
C54   O2    S    
C22   C47   A    
C92   H43   S    
C17   C81   A    
C93   H46   S    
C16   H15   S    
C10   C11   S    
C57   N3    A    
C46   C48   A    
C1    O1    A    
C89   H39   S    
C104  H71   S    
C6    H104  S    
C88   C89   S    
C37   C39   A    
C23   C36   A    
C26   H23   S    
C75   C77   A    
C107  H79   S    
C95   C96   S    
C81   O6    S    
C70   C72   A    
C85   N2    S    
C106  H77   S    
C89   C90   S    
C69   C91   A    
C108  H82   S    
C76   C85   A    
C4    O16   S    
C73   O4    S    
C73   C102  A    
C10   H3    S    
C15   C16   S    
C86   H29   S    
C71   O11   S    
C96   H53   S    
C51   H27   S    
