data_mof_unit_pretest_1915.cif
_audit_creation_date              2013-03-05T16:45:42-0500
_audit_creation_method            fapswitch 2.2
_symmetry_space_group_name_H-M    P1
_symmetry_Int_Tables_number       1
_space_group_crystal_system       triclinic
_cell_length_a                    10.664009
_cell_length_b                    15.907042
_cell_length_c                    17.15773
_cell_angle_alpha                 94.728916
_cell_angle_beta                  92.442293
_cell_angle_gamma                 91.981729
_cell_volume                      2895.85031127

loop_
_atom_site_label
_atom_site_type_symbol
_atom_site_description
_atom_site_fract_x
_atom_site_fract_y
_atom_site_fract_z
_atom_type_partial_charge
O1    O     O_R   0.494270 0.420530 0.382500 -0.577929
O2    O     O_R   0.505730 0.579470 0.617500 -0.578352
O3    O     O_R   0.504620 0.563720 0.388950 -0.519287
O4    O     O_R   0.495380 0.436280 0.611050 -0.519349
C1    C     C_R   0.502889 0.491174 0.348732 0.894952
C2    C     C_R   0.497192 0.508817 0.651264 0.894612
O5    O     O_R   0.311680 0.428420 0.496760 -0.537732
O6    O     O_R   0.688320 0.571580 0.503240 -0.537549
O7    O     O_R   0.322030 0.571610 0.503210 -0.543011
O8    O     O_R   0.677970 0.428390 0.496790 -0.543126
C3    C     C_R   0.259713 0.500549 0.500620 0.905746
C4    C     C_R   0.740282 0.499450 0.499367 0.905378
Cu1   Cu    Cu3+1 0.493870 0.415220 0.496180 1.122935
Cu2   Cu    Cu3+1 0.506130 0.584780 0.503820 1.122906
C5    C     C_3   0.037733 0.467775 0.429412 -0.305690
C6    C     C_3   0.962251 0.532218 0.570553 -0.305574
C7    C     C_3   0.956952 0.546415 0.443519 0.354590
C8    C     C_3   0.043025 0.453579 0.556445 0.354523
H1    H     H_    0.069993 0.440976 0.372227 0.239977
H2    H     H_    0.929997 0.559007 0.627743 0.239876
C9    C     C_3   0.876432 0.498600 0.498966 -0.286668
C10   C     C_3   0.123555 0.501396 0.501001 -0.286919
C11   C     C_3   0.956716 0.421277 0.485768 0.305461
C12   C     C_3   0.043263 0.578719 0.514197 0.305654
C13   C     C_R   0.502287 0.490350 0.262487 -0.234670
C14   C     C_R   0.498148 0.509535 0.737493 -0.234476
C15   C     C_R   0.531154 0.564006 0.224123 0.325604
C16   C     C_R   0.468395 0.435962 0.775742 0.325555
C17   C     C_R   0.512273 0.562734 0.142477 0.191156
C18   C     C_R   0.487667 0.436911 0.857325 0.191262
C19   C     C_R   0.471997 0.486790 0.098415 0.147817
C20   C     C_R   0.529297 0.512502 0.901494 0.147892
C21   C     C_R   0.446947 0.414071 0.136643 0.382356
C22   C     C_R   0.555396 0.585146 0.863370 0.382978
C23   C     C_R   0.463968 0.415793 0.217462 -0.265889
C24   C     C_R   0.537996 0.583724 0.782582 -0.266790
N1    N     N_2   0.456626 0.481776 0.015768 -0.105830
N2    N     N_2   0.544773 0.517331 0.984144 -0.106114
H3    H     H_    0.445162 0.358476 0.245016 0.263152
H4    H     H_    0.557786 0.640930 0.755084 0.263206
N3    N     N_R   0.515330 0.712130 0.509560 -0.291457
N4    N     N_R   0.484670 0.287870 0.490440 -0.291399
C25   C     C_R   0.433680 0.752546 0.461859 0.458215
C26   C     C_R   0.566350 0.247422 0.538083 0.457984
C27   C     C_R   0.439733 0.841478 0.459652 0.174703
C28   C     C_R   0.560244 0.158491 0.540264 0.174641
C29   C     C_R   0.530822 0.890379 0.507532 0.183610
C30   C     C_R   0.468988 0.109636 0.492460 0.183919
C31   C     C_R   0.613861 0.847808 0.554010 -0.270471
C32   C     C_R   0.385796 0.152268 0.446127 -0.271072
C33   C     C_R   0.605886 0.759435 0.554602 0.443541
C34   C     C_R   0.393872 0.240642 0.445549 0.443434
N5    N     N_2   0.548132 0.980501 0.507989 -0.096234
N6    N     N_2   0.451654 0.019509 0.491974 -0.096167
H5    H     H_    0.686931 0.883556 0.589584 0.246341
H6    H     H_    0.312541 0.116574 0.410668 0.246141
Cl1   Cl    Cl    0.897089 0.606212 0.367779 -0.373209
Cl2   Cl    Cl    0.102792 0.393768 0.632193 -0.372484
N7    N     N_R   0.698998 0.720279 0.599784 0.153017
O9    O     O_R   0.689945 0.723843 0.675223 -0.324929
O10   O     O_R   0.809730 0.712197 0.571754 -0.279719
N8    N     N_R   0.300480 0.279927 0.400696 0.153599
O11   O     O_R   0.310236 0.278032 0.325389 -0.325762
O12   O     O_R   0.189438 0.286979 0.428502 -0.279156
N9    N     N_R   0.907176 0.334937 0.467965 0.196501
O13   O     O_R   0.936308 0.276303 0.513287 -0.179249
O14   O     O_R   0.838779 0.315287 0.404073 -0.291050
N10   N     N_R   0.092769 0.665066 0.532003 0.196416
O15   O     O_R   0.063501 0.723714 0.486729 -0.179473
O16   O     O_R   0.161199 0.684717 0.595883 -0.290848
Cl3   Cl    Cl    0.407234 0.341119 0.724268 -0.353799
Cl4   Cl    Cl    0.590720 0.659298 0.275521 -0.353860
N11   N     N_R   0.472869 0.359942 0.894655 0.200780
O17   O     O_R   0.567345 0.331542 0.933729 -0.220885
O18   O     O_R   0.364666 0.319103 0.891188 -0.171954
N12   N     N_R   0.526050 0.639659 0.104933 0.200732
O19   O     O_R   0.431685 0.666751 0.064761 -0.222253
O20   O     O_R   0.633343 0.681685 0.109131 -0.171158
Cl5   Cl    Cl    0.393533 0.318959 0.084312 -0.325317
Cl6   Cl    Cl    0.610604 0.679786 0.915810 -0.325392
Cl7   Cl    Cl    0.674064 0.305290 0.604497 -0.386566
Cl8   Cl    Cl    0.325899 0.694657 0.395503 -0.386136
N13   N     N_R   0.640262 0.119855 0.595181 0.182207
O21   O     O_R   0.591970 0.082096 0.651964 -0.232692
O22   O     O_R   0.761651 0.124971 0.590260 -0.197702
N14   N     N_R   0.359797 0.880079 0.404666 0.182318
O23   O     O_R   0.408187 0.917880 0.347939 -0.232583
O24   O     O_R   0.238396 0.874970 0.409519 -0.197755

loop_
_geom_bond_atom_site_label_1
_geom_bond_atom_site_label_2
_geom_bond_distance
_ccdc_geom_bond_type
C6    C9    1.547319 S    
C15   C17   1.405119 A    
N3    C25   1.380603 A    
N11   O17   1.300941 A    
C29   C31   1.396062 A    
C17   N12   1.435076 S    
N5    N6    1.251874 D    
C30   N6    1.438465 S    
N8    O11   1.298649 A    
O1    C1    1.308303 A    
N12   O20   1.301294 A    
N14   O24   1.301005 A    
O4    Cu1   1.971046 S    
N8    O12   1.300354 A    
C22   Cl6   1.758631 S    
C5    H1    1.110277 S    
C8    Cl2   1.782065 S    
C5    C10   1.547388 S    
N10   O15   1.300058 A    
C31   C33   1.406286 A    
C32   C34   1.406305 A    
C19   C21   1.399389 A    
C20   N2    1.416099 S    
C6    H2    1.110277 S    
C29   N5    1.438404 S    
C5    C11   1.540599 S    
N7    O9    1.298773 A    
C6    C12   1.540585 S    
Cu1   Cu2   2.687939 S    
N11   O18   1.301125 A    
O2    C2    1.308349 A    
N4    C26   1.380473 A    
Cu1   N4    2.018804 S    
C26   C28   1.417524 A    
O5    C3    1.289377 A    
C27   C29   1.413473 A    
C28   C30   1.413601 A    
N7    O10   1.300356 A    
C7    C12   1.533372 S    
C8    C11   1.533341 S    
C24   H4    1.077588 S    
N12   O19   1.301282 A    
O4    C2    1.293776 A    
C26   Cl7   1.762846 S    
C18   N11   1.434833 S    
N14   O23   1.301149 A    
C21   Cl5   1.758553 S    
N9    O14   1.300410 A    
C31   H5    1.083814 S    
C4    C9    1.452739 S    
C32   H6    1.083816 S    
C19   N1    1.415864 S    
C20   C22   1.399481 A    
C23   H3    1.077732 S    
O7    Cu2   1.966663 S    
N1    N2    1.247065 D    
O7    C3    1.287862 A    
N13   O21   1.301157 A    
O6    C4    1.289371 A    
C25   C27   1.417584 A    
O3    Cu2   1.971044 S    
O8    C4    1.287832 A    
C13   C23   1.399593 A    
Cu2   N3    2.018804 S    
C1    C13   1.478479 S    
C14   C24   1.399475 A    
N13   O22   1.301007 A    
C9    C11   1.529887 S    
C10   C12   1.529941 S    
C16   Cl3   1.773318 S    
O1    Cu1   1.959443 S    
C5    C7    1.551734 S    
O6    Cu2   1.961753 S    
C8    C10   1.537767 S    
O3    C1    1.293970 A    
O8    Cu1   1.966664 S    
C13   C15   1.421361 A    
C3    C10   1.452812 S    
C14   C16   1.421172 A    
C11   N9    1.457926 S    
C16   C18   1.404858 A    
C27   N14   1.434198 S    
C17   C19   1.414656 A    
C34   N8    1.425362 S    
C18   C20   1.414699 A    
C2    C14   1.478199 S    
C30   C32   1.396180 A    
C21   C23   1.388696 A    
C22   C24   1.388860 A    
O2    Cu2   1.959443 S    
C7    C9    1.537744 S    
C12   N10   1.457920 S    
C28   N13   1.434204 S    
O5    Cu1   1.961752 S    
C33   N7    1.425364 S    
C6    C8    1.551677 S    
N9    O13   1.300058 A    
N4    C34   1.373282 A    
N10   O16   1.300408 A    
N3    C33   1.373424 A    
C15   Cl4   1.773184 S    
C25   Cl8   1.762858 S    
C7    Cl1   1.782164 S    
