data_mof_unit_pretest_1294.cif
_audit_creation_date              2013-03-05T16:03:58-0500
_audit_creation_method            fapswitch 2.2
_symmetry_space_group_name_H-M    P1
_symmetry_Int_Tables_number       1
_space_group_crystal_system       triclinic
_cell_length_a                    15.003425
_cell_length_b                    13.99635
_cell_length_c                    23.430612
_cell_angle_alpha                 90.040794
_cell_angle_beta                  90.073343
_cell_angle_gamma                 89.811616
_cell_volume                      4920.23704028

loop_
_atom_site_label
_atom_site_type_symbol
_atom_site_description
_atom_site_fract_x
_atom_site_fract_y
_atom_site_fract_z
_atom_type_partial_charge
O1    O     O_R   0.367850 0.580280 0.500010 -0.623917
O2    O     O_R   0.632150 0.419720 0.499990 -0.621197
O3    O     O_R   0.632150 0.580280 0.499990 -0.624861
O4    O     O_R   0.367850 0.419720 0.500010 -0.624482
C1    C     C_R   0.326523 0.500146 0.500158 0.900181
C2    C     C_R   0.673493 0.499822 0.500012 0.897346
O5    O     O_R   0.499970 0.580290 0.416160 -0.627205
O6    O     O_R   0.500030 0.419710 0.583840 -0.625071
O7    O     O_R   0.500030 0.580290 0.583840 -0.629779
O8    O     O_R   0.499970 0.419710 0.416160 -0.624988
C3    C     C_R   0.499984 0.499999 0.389272 0.900766
C4    C     C_R   0.500118 0.500036 0.610725 0.894401
Zn1   Zn    Zn3+2 0.500000 0.607200 0.500000 0.958211
Zn2   Zn    Zn3+2 0.500000 0.392800 0.500000 0.960685
C5    C     C_R   0.584172 0.506087 0.880957 0.521894
C6    C     C_R   0.418350 0.508063 0.119014 0.522574
N1    N     N_R   0.504896 0.504805 0.852276 -0.354669
N2    N     N_R   0.497585 0.504983 0.147707 -0.354735
C7    C     C_R   0.424893 0.509497 0.879629 0.573182
C8    C     C_R   0.577651 0.507777 0.120369 0.572327
C9    C     C_R   0.422037 0.513085 0.939043 -0.062340
C10   C     C_R   0.580572 0.511255 0.060952 -0.062410
C11   C     C_R   0.502587 0.513595 0.969955 -0.045639
C12   C     C_R   0.500046 0.513638 0.030035 -0.045472
C13   C     C_R   0.585441 0.513071 0.940876 -0.132076
C14   C     C_R   0.417194 0.515064 0.059108 -0.132560
C15   C     C_R   0.340382 0.517206 0.967756 -0.195927
C16   C     C_R   0.662271 0.513440 0.032239 -0.196305
C17   C     C_R   0.336924 0.520417 0.027173 0.315007
C18   C     C_R   0.665774 0.516540 0.972818 0.315675
O9    O     O_2   0.660702 0.497621 0.851227 -0.482105
O10   O     O_2   0.341702 0.501345 0.148726 -0.479352
O11   O     O_2   0.348445 0.510558 0.849151 -0.536446
O12   O     O_2   0.654086 0.507066 0.150862 -0.536570
H1    H     H_    0.278376 0.520078 0.944030 0.228004
H2    H     H_    0.724306 0.514861 0.055967 0.228176
C19   C     C_R   0.518889 0.416617 0.237362 0.267881
C20   C     C_R   0.481873 0.416913 0.762612 0.267097
C21   C     C_R   0.520228 0.416671 0.296908 -0.274887
C22   C     C_R   0.479755 0.417119 0.703075 -0.273839
H3    H     H_    0.537874 0.351614 0.319369 0.151302
H4    H     H_    0.460876 0.352540 0.680609 0.151915
C23   C     C_R   0.499209 0.500242 0.327157 -0.065146
C24   C     C_R   0.501530 0.500250 0.672833 -0.064071
C25   C     C_R   0.477287 0.584257 0.297752 -0.202351
C26   C     C_R   0.525157 0.583632 0.702231 -0.209435
H5    H     H_    0.460836 0.649485 0.320377 0.172640
H6    H     H_    0.542313 0.648461 0.679591 0.170673
C27   C     C_R   0.475825 0.584635 0.238648 -0.135721
C28   C     C_R   0.527429 0.583853 0.761335 -0.136016
H7    H     H_    0.459262 0.649842 0.216082 0.162975
H8    H     H_    0.545208 0.648614 0.783909 0.162437
C29   C     C_R   0.496603 0.501448 0.208430 0.280423
C30   C     C_R   0.505730 0.501155 0.791548 0.281314
C31   C     C_R   0.814530 0.581713 0.483167 -0.200631
C32   C     C_R   0.185470 0.416625 0.512969 -0.201537
C33   C     C_R   0.769271 0.499197 0.499078 -0.093162
C34   C     C_R   0.230771 0.500262 0.499388 -0.091032
C35   C     C_R   0.815108 0.415743 0.513648 -0.187991
C36   C     C_R   0.184977 0.583530 0.484436 -0.189538
C37   C     C_R   0.907696 0.413028 0.511602 -0.004921
C38   C     C_R   0.092415 0.583619 0.481304 -0.003530
C39   C     C_R   0.953622 0.497663 0.496314 0.031302
C40   C     C_R   0.046450 0.498859 0.496258 0.032601
C41   C     C_R   0.906600 0.581779 0.482006 0.078332
C42   C     C_R   0.093466 0.415536 0.512074 0.080259
C43   C     C_R   0.955642 0.329311 0.526180 0.312934
C44   C     C_R   0.044572 0.666588 0.465271 0.307802
C45   C     C_R   0.048396 0.332070 0.526863 -0.266948
C46   C     C_R   0.951775 0.664953 0.466631 -0.259035
H9    H     H_    0.778081 0.645945 0.471580 0.155940
H10   H     H_    0.221824 0.352588 0.525028 0.152217
H11   H     H_    0.777906 0.354083 0.527735 0.207505
H12   H     H_    0.222162 0.647848 0.475528 0.205770
H13   H     H_    0.085525 0.268227 0.538259 0.184227
H14   H     H_    0.914709 0.728577 0.454758 0.187091
C47   C     C_R   0.549165 0.797346 0.460466 -0.033304
C48   C     C_R   0.449964 0.202619 0.539054 -0.032313
C49   C     C_R   0.449931 0.797910 0.539003 -0.017305
C50   C     C_R   0.548163 0.202210 0.459968 -0.016791
N3    N     N_R   0.500000 0.750030 0.500000 -0.106256
N4    N     N_R   0.500000 0.249970 0.500000 -0.104504
C51   C     C_R   0.447553 0.898817 0.539837 -0.063988
C52   C     C_R   0.548286 0.101283 0.457858 -0.062889
C53   C     C_R   0.550283 0.898319 0.458822 -0.066176
C54   C     C_R   0.447358 0.101680 0.539878 -0.068122
C55   C     C_R   0.498733 0.949377 0.499249 0.019818
C56   C     C_R   0.498187 0.050686 0.499024 0.020884
C57   C     C_R   0.394807 0.949964 0.579629 0.165175
C58   C     C_R   0.597625 0.049990 0.416287 0.172511
C59   C     C_R   0.599578 0.949182 0.417237 0.179421
C60   C     C_R   0.394812 0.050780 0.579822 0.177442
H15   H     H_    0.586452 0.755059 0.430159 0.135392
H16   H     H_    0.412106 0.244838 0.569112 0.131694
H17   H     H_    0.411842 0.756280 0.569069 0.138885
H18   H     H_    0.586616 0.244053 0.430198 0.132679
N5    N     N_2   0.342798 0.901215 0.621192 -0.292833
H19   H     H_    0.377478 0.853277 0.646266 0.219768
C61   C     C_3   0.256605 0.867278 0.602046 -0.686428
H20   H     H_    0.257598 0.788233 0.597749 0.218996
H21   H     H_    0.237226 0.898733 0.560214 0.255900
H22   H     H_    0.205381 0.887243 0.634059 0.262274
N6    N     N_2   0.644370 0.098090 0.371930 -0.311526
H23   H     H_    0.609971 0.153578 0.353038 0.204215
C62   C     C_3   0.735968 0.120839 0.385237 -0.635591
H24   H     H_    0.738786 0.174643 0.420010 0.253247
H25   H     H_    0.768829 0.150855 0.346828 0.237050
H26   H     H_    0.772907 0.055507 0.398385 0.269936
N7    N     N_2   0.651788 0.900558 0.375494 -0.289788
H27   H     H_    0.690781 0.845640 0.391017 0.217341
C63   C     C_3   0.604208 0.876591 0.323739 -0.710930
H28   H     H_    0.651109 0.844270 0.292546 0.249736
H29   H     H_    0.574757 0.941865 0.304306 0.257791
H30   H     H_    0.550440 0.824420 0.332920 0.219185
N8    N     N_2   0.343642 0.099372 0.622119 -0.287387
H31   H     H_    0.377902 0.151627 0.643987 0.209785
C64   C     C_3   0.255976 0.129670 0.603539 -0.704497
H32   H     H_    0.219573 0.161958 0.640033 0.248682
H33   H     H_    0.217020 0.067780 0.587794 0.268710
H34   H     H_    0.261122 0.183655 0.569000 0.209031
N9    N     N_R   0.251537 0.532909 0.053648 0.252517
O13   O     O_R   0.235652 0.609880 0.083170 -0.298395
O14   O     O_R   0.184953 0.479540 0.038056 -0.321441
N10   N     N_R   0.751327 0.526985 0.946351 0.252605
O15   O     O_R   0.768337 0.603564 0.916895 -0.301593
O16   O     O_R   0.817117 0.472037 0.961900 -0.321985
N11   N     N_2   0.542413 0.332462 0.206719 -0.301290
H35   H     H_    0.589347 0.290847 0.227315 0.234488
C65   C     C_3   0.467161 0.276598 0.187604 -0.718622
H36   H     H_    0.491367 0.214357 0.162559 0.246502
H37   H     H_    0.422852 0.319765 0.159746 0.268216
H38   H     H_    0.428689 0.250045 0.224847 0.241155
N12   N     N_2   0.457472 0.333292 0.793259 -0.301720
H39   H     H_    0.409888 0.292673 0.772768 0.235243
C66   C     C_3   0.532118 0.275844 0.812183 -0.714865
H40   H     H_    0.507271 0.214141 0.837240 0.246930
H41   H     H_    0.577098 0.318071 0.839977 0.267529
H42   H     H_    0.570069 0.248459 0.774844 0.242707
N13   N     N_R   0.911939 0.241124 0.540019 0.209695
O17   O     O_R   0.853778 0.204948 0.504993 -0.415859
O18   O     O_R   0.942288 0.188306 0.581439 -0.359081
N14   N     N_R   0.088517 0.752275 0.446871 0.199712
O19   O     O_R   0.146750 0.748612 0.405804 -0.373436
O20   O     O_R   0.058615 0.835228 0.463294 -0.369097

loop_
_geom_bond_atom_site_label_1
_geom_bond_atom_site_label_2
_geom_bond_distance
_ccdc_geom_bond_type
C66   H42   1.111707 S    
C51   C55   1.414654 A    
C55   C56   1.417973 A    
C39   C41   1.410918 A    
C15   C17   1.393908 A    
C63   H28   1.110275 S    
C50   C52   1.413437 A    
O3    C2    1.283862 A    
C27   H7    1.083107 S    
N5    H19   1.031295 S    
C53   C59   1.417551 A    
C66   H40   1.110354 S    
C21   H3    1.083938 S    
O5    C3    1.287929 A    
C62   H25   1.110181 S    
C28   C30   1.396820 A    
C1    C34   1.436695 S    
O1    C1    1.283355 A    
C7    C9    1.393683 A    
C12   C14   1.418314 A    
C64   H33   1.109233 S    
C54   C56   1.415836 A    
C33   C35   1.395904 A    
C42   C45   1.395863 A    
C34   C36   1.395633 A    
C41   C46   1.396698 A    
Zn1   N3    1.999099 S    
C36   C38   1.390582 A    
C20   N12   1.422736 S    
C36   H12   1.081243 S    
C37   C39   1.418780 A    
C37   C43   1.414737 A    
O7    Zn1   2.000466 S    
N2    C29   1.423776 S    
C31   C41   1.381670 A    
N8    C64   1.447232 S    
C17   N9    1.434224 S    
C28   H8    1.083086 S    
C11   C12   1.408276 A    
C32   C42   1.380654 A    
C44   N14   1.437214 S    
C25   C27   1.385021 A    
C50   H18   1.079926 S    
C43   N13   1.437012 S    
C35   H11   1.081352 S    
C22   C24   1.402462 A    
C38   C40   1.418558 A    
O3    Zn1   2.016967 S    
C65   H38   1.111713 S    
C19   C29   1.406777 A    
C48   C54   1.413587 A    
C25   H5    1.083317 S    
C9    C15   1.399423 A    
C47   C53   1.413959 A    
C10   C16   1.399447 A    
C2    C33   1.437192 S    
O2    C2    1.283071 A    
C52   C58   1.417557 A    
N5    C61   1.449640 S    
C24   C26   1.401086 A    
C53   C55   1.415404 A    
C6    C14   1.407215 A    
C51   C57   1.416054 A    
C62   H26   1.111219 S    
C26   H6    1.083304 S    
C35   C37   1.390418 A    
C63   H29   1.111148 S    
C7    O11   1.350405 S    
C64   H34   1.110500 S    
C49   N3    1.358715 A    
O4    C1    1.283358 A    
C21   C23   1.402471 A    
C15   H1    1.083765 S    
C57   N5    1.424495 S    
C43   C45   1.392359 A    
C40   C42   1.410504 A    
N11   C65   1.445910 S    
C49   H17   1.079899 S    
C48   N4    1.358696 A    
C61   H20   1.110900 S    
C20   C30   1.406775 A    
C47   N3    1.358893 A    
O6    C4    1.288344 A    
N6    C62   1.445297 S    
C57   C60   1.411056 A    
C3    C23   1.455433 S    
C23   C25   1.401309 A    
N9    O13   1.301369 A    
C50   N4    1.358848 A    
C61   H21   1.112710 S    
C8    C10   1.393827 A    
O8    C3    1.288697 A    
C31   C33   1.392959 A    
C46   H14   1.084597 S    
N12   H39   1.031894 S    
C66   H41   1.108960 S    
C10   C12   1.408213 A    
O1    Zn1   2.019403 S    
Zn2   N4    1.999100 S    
N11   H35   1.031911 S    
N14   O20   1.301443 A    
N10   O16   1.301148 A    
C65   H36   1.110356 S    
C13   C18   1.418858 A    
C5    N1    1.365553 A    
O6    Zn2   1.999940 S    
C32   H10   1.085079 S    
C52   C56   1.415328 A    
C18   N10   1.434213 S    
C22   H4    1.083942 S    
N13   O17   1.300703 A    
C5    O9    1.348589 S    
C6    O10   1.348620 S    
C62   H24   1.109934 S    
C26   C28   1.385218 A    
C38   C44   1.413986 A    
C59   N7    1.425098 S    
C9    C11   1.408182 A    
C8    O12   1.350376 S    
C16   C18   1.394027 A    
C19   C21   1.395323 A    
C54   C60   1.418285 A    
N7    H27   1.030659 S    
C20   C22   1.395314 A    
N13   O18   1.301313 A    
C58   C59   1.411343 A    
C48   H16   1.079820 S    
C27   C29   1.396821 A    
N7    C63   1.446190 S    
C47   H15   1.079703 S    
N1    C7    1.362804 A    
C32   C34   1.392787 A    
C45   H13   1.084799 S    
C63   H30   1.111213 S    
N2    C8    1.362779 A    
C11   C13   1.418331 A    
O4    Zn2   2.016968 S    
O2    Zn2   2.019401 S    
C60   N8    1.425370 S    
C58   N6    1.425227 S    
N9    O14   1.301146 A    
C5    C13   1.407384 A    
O7    C4    1.288227 A    
C39   C40   1.392894 A    
C49   C51   1.412784 A    
O5    Zn1   1.999940 S    
C61   H22   1.109552 S    
C16   H2    1.083763 S    
C14   C17   1.418821 A    
C6    N2    1.365542 A    
N6    H23   1.030889 S    
N12   C66   1.445926 S    
C44   C46   1.392951 A    
N14   O19   1.301381 A    
C4    C24   1.455350 S    
C19   N11   1.422710 S    
C64   H32   1.110261 S    
N1    C30   1.423839 S    
C31   H9    1.085224 S    
N8    H31   1.030986 S    
O8    Zn2   2.000466 S    
N10   O15   1.301372 A    
C65   H37   1.108992 S    
