data_mof_unit_pretest_1224.cif
_audit_creation_date              2012-12-10T17:33:44-0500
_audit_creation_method            fapswitch 2.2
_symmetry_space_group_name_H-M    P1
_symmetry_Int_Tables_number       1
_space_group_crystal_system       triclinic
_cell_length_a                    11.694459
_cell_length_b                    12.327646
_cell_length_c                    13.174159
_cell_angle_alpha                 116.518177
_cell_angle_beta                  78.082629
_cell_angle_gamma                 101.074866
_cell_volume                      1651.95150857

loop_
_atom_site_label
_atom_site_type_symbol
_atom_type_description
_atom_site_fract_x
_atom_site_fract_y
_atom_site_fract_z
_atom_type_partial_charge
C1    C     C_R   0.511246 0.854869 0.286536 0.768681
C2    C     C_R   0.458827 0.228007 0.834093 -0.047019
C3    C     C_R   0.599430 0.813975 0.087904 -0.187016
C4    C     C_R   0.629299 0.733893 0.974838 -0.151096
C5    C     C_R   0.586958 0.610889 0.936573 -0.205163
C6    C     C_R   0.507999 0.565809 0.010057 0.082746
C7    C     C_R   0.468852 0.650397 0.122471 0.081579
C8    C     C_R   0.465973 0.439883 0.975656 0.075776
C9    C     C_R   0.380283 0.402059 0.050584 0.164988
C10   C     C_R   0.334608 0.488386 0.155840 -0.240197
C11   C     C_R   0.376507 0.610807 0.190417 -0.200657
C12   C     C_R   0.715721 0.999570 0.499867 0.818655
C13   C     C_R   0.506176 0.349971 0.868814 -0.253849
C14   C     C_R   0.377294 0.191439 0.909947 -0.198246
C15   C     C_R   0.522469 0.772905 0.163602 -0.099860
C16   C     C_R   0.694173 0.352686 0.339137 -0.299929
C17   C     C_R   0.345101 0.763408 0.647687 0.032456
C18   C     C_R   0.322689 0.679162 0.694336 -0.275550
C19   C     C_R   0.389414 0.580690 0.650923 0.167269
C20   C     C_R   0.471357 0.559234 0.548414 -0.061213
C21   C     C_R   0.497319 0.654900 0.510251 0.254724
C22   C     C_R   0.532673 0.451939 0.484329 -0.037388
C23   C     C_R   0.482968 0.145051 0.713282 0.796305
C24   C     C_R   0.628840 0.452440 0.398728 0.179183
C25   C     C_R   0.657883 0.551001 0.370640 -0.278567
C26   C     C_R   0.591567 0.648025 0.422720 -0.158449
C27   C     C_R   0.499773 0.340760 0.495571 0.006780
C28   C     C_R   0.662613 0.250664 0.361876 0.078426
C29   C     C_R   0.284272 0.000459 0.500178 0.815873
C30   C     C_1   0.837357 0.999135 0.500009 -0.186471
C31   C     C_1   0.939980 0.999563 0.500031 -0.003764
C32   C     C_1   0.060012 0.000434 0.500018 -0.005049
C33   C     C_1   0.162637 0.000873 0.500036 -0.189205
C34   C     C_R   0.338598 0.278170 0.018081 -0.193130
Cu1   Cu    Cu3+1 0.526510 0.098270 0.475420 0.934733
Cu2   Cu    Cu3+1 0.473490 0.901730 0.524580 0.925915
H1    H     H_    0.339487 0.097138 0.883823 0.146201
H2    H     H_    0.730700 0.551541 0.304732 0.151370
H3    H     H_    0.768978 0.353573 0.275202 0.135615
H4    H     H_    0.420089 0.325809 0.547015 0.157926
H5    H     H_    0.296582 0.841941 0.686585 0.137970
H6    H     H_    0.258707 0.696377 0.770582 0.149526
H7    H     H_    0.618995 0.717115 0.392521 0.205815
H8    H     H_    0.265573 0.461254 0.211682 0.145545
H9    H     H_    0.273277 0.248929 0.075009 0.133762
H10   H     H_    0.572888 0.372038 0.809113 0.145935
H11   H     H_    0.640059 0.907580 0.117094 0.150374
H12   H     H_    0.616271 0.554565 0.848307 0.126590
H13   H     H_    0.689056 0.766590 0.917229 0.143670
H14   H     H_    0.333333 0.674001 0.270173 0.174328
H15   H     H_    0.713676 0.174015 0.317720 0.121664
N1    N     N_R   0.566700 0.246290 0.438210 -0.182335
N2    N     N_R   0.434010 0.754320 0.561170 -0.202850
O1    O     O_R   0.533340 0.972510 0.318140 -0.578463
O2    O     O_R   0.488570 0.806530 0.359650 -0.602677
O3    O     O_R   0.685190 0.083000 0.479260 -0.575610
O4    O     O_R   0.640410 0.917020 0.520770 -0.587810
O5    O     O_R   0.511430 0.193470 0.640350 -0.584451
O6    O     O_R   0.466660 0.027490 0.681860 -0.585372
O7    O     O_R   0.359590 0.082980 0.479230 -0.575998
O8    O     O_R   0.314810 0.917000 0.520740 -0.584589
C35   C     C_3   0.385683 0.521557 0.731177 -0.407862
C36   C     C_3   0.269421 0.441830 0.738805 -0.822242
H16   H     H_    0.197153 0.499880 0.786440 0.245192
H17   H     H_    0.245953 0.378132 0.652597 0.246946
H18   H     H_    0.276845 0.388044 0.785501 0.250399
H19   H     H_    0.461929 0.470723 0.710413 0.194148
H20   H     H_    0.394882 0.594785 0.818544 0.215011

loop_
_geom_bond_atom_site_label_1
_geom_bond_atom_site_label_2
_ccdc_geom_bond_type
C16   C28   A    
C23   O5    A    
C23   O6    A    
C1    O1    A    
C36   H17   S    
C24   C25   A    
C14   C34   A    
C6    C7    A    
C1    C15   S    
C29   C33   S    
C25   H2    S    
C21   N2    A    
C9    C10   A    
C27   H4    S    
C19   C20   A    
C29   O7    A    
C35   H20   S    
C4    H13   S    
C21   C26   A    
Cu2   O6    S    
C32   C33   T    
C7    C15   A    
C17   C18   A    
C1    O2    A    
C36   H18   S    
C16   C24   A    
C34   H9    S    
C12   O3    A    
C27   N1    A    
Cu1   O1    S    
C7    C11   A    
C28   N1    A    
C30   C31   T    
C35   C36   S    
C35   H19   S    
Cu1   O5    S    
C12   O4    A    
C3    H11   S    
C28   H15   S    
C20   C22   A    
C26   H7    S    
Cu2   O4    S    
C22   C24   A    
C22   C27   A    
C18   H6    S    
C5    C6    A    
C2    C14   A    
C5    H12   S    
C29   O8    A    
Cu1   O3    S    
C17   H5    S    
C10   C11   A    
C19   C35   S    
C10   H8    S    
Cu2   O8    S    
Cu1   O7    S    
C8    C13   A    
C17   N2    A    
Cu1   N1    S    
C3    C15   A    
C20   C21   A    
C18   C19   A    
C2    C23   S    
Cu2   O2    S    
C2    C13   A    
C11   H14   S    
C13   H10   S    
C8    C9    A    
C6    C8    A    
Cu2   N2    S    
C16   H3    S    
C12   C30   S    
C25   C26   A    
C36   H16   S    
C31   C32   S    
C3    C4    A    
C9    C34   A    
C4    C5    A    
C14   H1    S    
Cu1   Cu2   S    
