data_mof_unit_pretest_604.cif
_audit_creation_date              2013-03-05T16:43:30-0500
_audit_creation_method            fapswitch 2.2
_symmetry_space_group_name_H-M    P1
_symmetry_Int_Tables_number       1
_space_group_crystal_system       triclinic
_cell_length_a                    10.52327
_cell_length_b                    10.70055
_cell_length_c                    9.900533
_cell_angle_alpha                 89.884989
_cell_angle_beta                  89.462387
_cell_angle_gamma                 90.165094
_cell_volume                      1114.79129686

loop_
_atom_site_label
_atom_site_type_symbol
_atom_site_description
_atom_site_fract_x
_atom_site_fract_y
_atom_site_fract_z
_atom_type_partial_charge
O1    O     O_R   0.500020 0.316790 0.614690 -0.595116
O2    O     O_R   0.500000 0.316760 0.385350 -0.616174
C1    C     C_R   0.497051 0.259993 0.500326 0.918123
O3    O     O_R   0.313960 0.499990 0.614650 -0.618014
O4    O     O_R   0.313940 0.499950 0.385310 -0.569150
C2    C     C_R   0.257457 0.502234 0.500522 0.899486
Zn1   Zn    Zn3+2 0.500010 0.500020 0.653130 1.012071
Zn2   Zn    Zn3+2 0.499990 0.499980 0.346870 0.995483
O5    O     O_R   0.500000 0.683240 0.614650 -0.609759
O6    O     O_R   0.499980 0.683210 0.385310 -0.626176
O7    O     O_R   0.686060 0.500050 0.614690 -0.603341
O8    O     O_R   0.686040 0.500010 0.385350 -0.637942
C3    C     C_R   0.496525 0.739748 0.499918 0.893528
C4    C     C_R   0.742479 0.500330 0.499186 0.944732
C5    C     C_3   0.038720 0.516757 0.627946 -0.202517
C6    C     C_3   0.958852 0.409420 0.572133 0.336452
H1    H     H_    0.069634 0.530896 0.733125 0.170583
C7    C     C_3   0.877319 0.502062 0.496857 -0.128897
C8    C     C_3   0.956377 0.611530 0.549709 -0.205030
C9    C     C_3   0.043126 0.599524 0.423375 -0.103646
C10   C     C_3   0.961381 0.490028 0.370217 -0.129925
C11   C     C_3   0.044029 0.394506 0.447289 -0.177308
C12   C     C_3   0.122512 0.504127 0.501149 -0.052696
H2    H     H_    0.917049 0.700074 0.590130 0.236455
H3    H     H_    0.082803 0.677858 0.362378 0.170520
H4    H     H_    0.925289 0.479910 0.265797 0.171209
H5    H     H_    0.083512 0.305632 0.407439 0.187630
C13   C     C_R   0.481023 0.062981 0.623630 0.111099
C14   C     C_R   0.479194 0.128257 0.501649 -0.053787
C15   C     C_R   0.454059 0.064518 0.381001 -0.173314
H6    H     H_    0.443197 0.113289 0.286109 0.192211
C16   C     C_R   0.453251 0.935299 0.380585 -0.189846
H7    H     H_    0.441315 0.886832 0.285556 0.177120
C17   C     C_R   0.478554 0.871011 0.500732 -0.059685
C18   C     C_R   0.482107 0.935404 0.622588 0.008250
C19   C     C_3   0.572140 0.928130 0.738741 0.145920
C20   C     C_3   0.570771 0.070046 0.740191 -0.478247
H8    H     H_    0.528887 0.884417 0.830396 0.122605
H9    H     H_    0.525130 0.106950 0.833075 0.175632
H10   H     H_    0.662666 0.115116 0.713566 0.279732
C21   C     C_R   0.388417 0.500836 0.072382 0.089410
N1    N     N_R   0.499140 0.499140 0.142800 -0.127061
C22   C     C_R   0.610327 0.509245 0.070633 -0.127123
H11   H     H_    0.699731 0.514912 0.123147 0.162726
C23   C     C_R   0.610335 0.509275 0.927111 -0.051815
H12   H     H_    0.699807 0.514940 0.872935 0.188857
N2    N     N_R   0.499140 0.499180 0.857150 -0.102533
C24   C     C_R   0.388414 0.500663 0.929905 -0.046864
C25   C     C_3   0.282961 0.405822 0.924998 0.158057
C26   C     C_3   0.283358 0.405872 0.079466 0.718583
H13   H     H_    0.194698 0.443960 0.881942 0.145182
N3    N     N_R   0.909133 0.304550 0.650144 0.209232
O9    O     O_R   0.930426 0.296667 0.779096 -0.383948
O10   O     O_R   0.849393 0.214725 0.589160 -0.393510
N4    N     N_R   0.696436 0.876284 0.702105 0.236661
O11   O     O_R   0.758416 0.915680 0.595717 -0.367789
O12   O     O_R   0.745878 0.789473 0.777038 -0.410070
O13   O     O_3   0.316970 0.290944 0.865919 -0.694370
H14   H     H_    0.407159 0.273765 0.886475 0.329354
O14   O     O_3   0.172220 0.456492 0.135367 -0.774342
H15   H     H_    0.104467 0.393419 0.120584 0.347068
O15   O     O_3   0.316083 0.291495 0.140878 -0.728311
H16   H     H_    0.405214 0.271094 0.116186 0.304335

loop_
_geom_bond_atom_site_label_1
_geom_bond_atom_site_label_2
_geom_bond_distance
_ccdc_geom_bond_type
O4    Zn2   1.990990 S    
C5    C8    1.547191 S    
N4    O11   1.302409 A    
Zn2   O6    1.998006 S    
C16   C17   1.400997 A    
C14   C15   1.403597 A    
C17   C18   1.391302 A    
C7    C10   1.533510 S    
C21   N1    1.363564 A    
C4    C7    1.418996 S    
C18   C19   1.498878 S    
C9    C12   1.531885 S    
C15   H6    1.080936 S    
Zn2   O8    1.998082 S    
C26   O14   1.400077 S    
C16   H7    1.083388 S    
C8    C9    1.547319 S    
C19   H8    1.112985 S    
C8    H2    1.108966 S    
C3    C17   1.417828 S    
C20   H9    1.107493 S    
C19   N4    1.465027 S    
O1    Zn1   1.998006 S    
C10   C11   1.548514 S    
C9    C10   1.547559 S    
C15   C16   1.382724 A    
C22   C23   1.420945 A    
C1    C14   1.421607 S    
O15   H16   0.992094 S    
C13   C20   1.499942 S    
O3    Zn1   1.998081 S    
C2    C12   1.420220 S    
C5    C12   1.533719 S    
C24   C25   1.502818 S    
C10   H4    1.110100 S    
O8    C4    1.278877 A    
Zn1   O7    1.990990 S    
C20   H10   1.108721 S    
O2    C1    1.289250 A    
C11   H5    1.110587 S    
N4    O12   1.300489 A    
C22   H11   1.080786 S    
O4    C2    1.281585 A    
C26   O15   1.410522 S    
O7    C4    1.283532 A    
C9    H3    1.110336 S    
Zn2   N1    2.020543 S    
C5    C6    1.528602 S    
C19   C20   1.518787 S    
Zn1   O5    1.996475 S    
C21   C26   1.500527 S    
C7    C8    1.530698 S    
N3    O9    1.300892 A    
O3    C2    1.281969 A    
C25   C26   1.529367 S    
N1    C22   1.369120 A    
C23   N2    1.369461 A    
C6    N3    1.454329 S    
C5    H1    1.104445 S    
O5    C3    1.286618 A    
C11   C12   1.532184 S    
C13   C14   1.394226 A    
C6    C11   1.528881 S    
C25   H13   1.104482 S    
O13   H14   0.990178 S    
C23   H12   1.080708 S    
C21   C24   1.410604 A    
C6    C7    1.512691 S    
O2    Zn2   1.996475 S    
C25   O13   1.408110 S    
N2    C24   1.364254 A    
C13   C18   1.365278 A    
N3    O10   1.299849 A    
O14   H15   0.992398 S    
O1    C1    1.286736 A    
O6    C3    1.287227 A    
Zn1   N2    2.019844 S    
