data_mof_unit_pretest_1934.cif
_audit_creation_date              2012-10-26T20:08:29-0400
_audit_creation_method            fapswitch 2.2
_symmetry_space_group_name_H-M    P1
_symmetry_Int_Tables_number       1
_space_group_crystal_system       triclinic
_cell_length_a                    16.033898
_cell_length_b                    14.431557
_cell_length_c                    13.145091
_cell_angle_alpha                 90.007271
_cell_angle_beta                  90.044214
_cell_angle_gamma                 89.998623
_cell_volume                      3041.69574017

loop_
_atom_site_label
_atom_site_type_symbol
_atom_type_description
_atom_site_fract_x
_atom_site_fract_y
_atom_site_fract_z
_atom_type_partial_charge
C1    C     C_R   0.500019 0.328704 0.499995 0.559008
C2    C     C_1   0.499998 0.500026 0.949319 -0.011597
C3    C     C_R   0.338338 0.499895 0.499945 0.577383
C4    C     C_R   0.661657 0.499835 0.500039 0.574223
C5    C     C_R   0.500023 0.671298 0.500004 0.560863
C6    C     C_3   0.048569 0.525283 0.607688 -0.079412
C7    C     C_3   0.049390 0.403361 0.463778 -0.099175
C8    C     C_3   0.950658 0.525946 0.609199 -0.101735
C9    C     C_3   0.951480 0.404978 0.464085 -0.078302
C10   C     C_1   0.750172 0.500640 0.500093 0.094316
C11   C     C_1   0.249809 0.500221 0.499687 0.090029
C12   C     C_1   0.500065 0.142312 0.499985 -0.009172
C13   C     C_3   0.083156 0.501471 0.497879 -0.102791
C14   C     C_3   0.916807 0.502753 0.499014 -0.099242
C15   C     C_3   0.948855 0.582932 0.422798 -0.012890
C16   C     C_3   0.050982 0.577220 0.416185 -0.017705
C17   C     C_1   0.824877 0.501520 0.499867 0.076949
C18   C     C_1   0.175101 0.500612 0.499058 0.064664
C19   C     C_1   0.500045 0.227126 0.499986 -0.012448
C20   C     C_2   0.908976 0.480171 0.701051 0.632310
C21   C     C_2   0.910322 0.322900 0.516719 0.651905
C22   C     C_2   0.089454 0.470449 0.693206 0.654833
C23   C     C_1   0.500078 0.042407 0.499989 0.031756
C24   C     C_2   0.090872 0.316287 0.506908 0.630387
C25   C     C_2   0.090124 0.673885 0.432101 0.642247
C26   C     C_2   0.085544 0.548442 0.309544 0.578333
C27   C     C_2   0.913248 0.677016 0.462184 0.575626
C28   C     C_2   0.909436 0.576358 0.315978 0.656801
C29   C     C_1   0.500079 0.957595 0.499995 0.032254
C30   C     C_1   0.500068 0.857690 0.500003 -0.007760
C31   C     C_1   0.500049 0.772876 0.500009 -0.010597
C32   C     C_1   0.500000 0.500025 0.173627 0.160837
C33   C     C_1   0.499998 0.500023 0.826373 0.159846
C34   C     C_1   0.499999 0.500026 0.050681 -0.011158
Cu1   Cu    Cu3+1 0.500000 0.499990 0.592680 1.047870
Cu2   Cu    Cu3+1 0.500000 0.499990 0.407320 1.050067
H1    H     H_    0.067856 0.393155 0.383818 0.143384
H2    H     H_    0.072719 0.475165 0.179103 0.367077
H3    H     H_    0.814632 0.764570 0.466469 0.355326
H4    H     H_    0.832251 0.511435 0.217482 0.360430
H5    H     H_    0.067415 0.597615 0.624473 0.187821
H6    H     H_    0.933000 0.395871 0.383435 0.196195
H7    H     H_    0.932634 0.597954 0.626657 0.141859
H8    H     H_    0.900976 0.474683 0.854299 0.362015
H9    H     H_    0.821613 0.223928 0.509792 0.355217
H10   H     H_    0.178426 0.467782 0.801808 0.356215
H11   H     H_    0.098652 0.176673 0.501128 0.362691
H12   H     H_    0.100986 0.804707 0.378891 0.362490
N1    N     N_1   0.500000 0.500020 0.268070 -0.156085
N2    N     N_1   0.500000 0.500020 0.731930 -0.156385
O1    O     O_R   0.500000 0.376050 0.578280 -0.472972
O2    O     O_R   0.933728 0.507123 0.798791 -0.645804
O3    O     O_2   0.934781 0.295488 0.599545 -0.395135
O4    O     O_R   0.844303 0.277461 0.468251 -0.668346
O5    O     O_2   0.064365 0.393354 0.716687 -0.397148
O6    O     O_R   0.155981 0.510032 0.746591 -0.660477
O7    O     O_2   0.149530 0.320662 0.566087 -0.474171
O8    O     O_R   0.065967 0.229668 0.469883 -0.648918
O9    O     O_2   0.138277 0.690050 0.502099 -0.499843
O10   O     O_R   0.071761 0.744280 0.362227 -0.598705
O11   O     O_2   0.155390 0.573528 0.283427 -0.470665
O12   O     O_R   0.500000 0.376050 0.421720 -0.476439
O13   O     O_R   0.041523 0.489048 0.244414 -0.688597
O14   O     O_2   0.952039 0.726595 0.521091 -0.490111
O15   O     O_R   0.832109 0.703521 0.434808 -0.670216
O16   O     O_2   0.925792 0.636071 0.252800 -0.406223
O17   O     O_R   0.853392 0.505901 0.289929 -0.688033
O18   O     O_R   0.379430 0.500000 0.578300 -0.475209
O19   O     O_R   0.379430 0.500000 0.421700 -0.481281
O20   O     O_R   0.620570 0.500000 0.578300 -0.484949
O21   O     O_R   0.620570 0.500000 0.421700 -0.476029
O22   O     O_R   0.500000 0.623940 0.578240 -0.475398
O23   O     O_R   0.500000 0.623940 0.421760 -0.471105
O24   O     O_2   0.850420 0.426699 0.691518 -0.471002

loop_
_geom_bond_atom_site_label_1
_geom_bond_atom_site_label_2
_ccdc_geom_bond_type
H9    O4    S    
C8    C14   S    
C9    C14   S    
Cu2   O21   S    
C11   C18   T    
C29   C30   S    
C27   O15   S    
C25   O10   S    
C6    C8    S    
C5    O23   A    
H3    O15   S    
C15   C27   S    
Cu1   Cu2   S    
C12   C23   S    
C8    H7    S    
C21   O4    S    
C26   O13   S    
C1    O12   A    
H8    O2    S    
Cu1   N2    S    
C4    O20   A    
C15   C28   S    
Cu1   O1    S    
C20   O24   D    
C20   O2    S    
C8    C20   S    
C6    C13   S    
C21   O3    D    
C1    O1    A    
C14   C17   S    
C9    C21   S    
C9    H6    S    
C22   O5    D    
C5    C31   S    
C13   C18   S    
C3    O18   A    
Cu2   O12   S    
Cu1   O18   S    
C12   C19   T    
C3    O19   A    
C26   O11   D    
Cu1   O22   S    
H12   O10   S    
C5    O22   A    
C16   C26   S    
C30   C31   T    
C2    C34   T    
C32   N1    T    
C1    C19   S    
C3    C11   S    
C27   O14   D    
C10   C17   T    
C4    C10   S    
C7    C24   S    
C6    C22   S    
C23   C29   T    
C7    C13   S    
C28   O17   S    
Cu2   O19   S    
C2    C33   S    
C24   O8    S    
H2    O13   S    
Cu2   O23   S    
C13   C16   S    
H10   O6    S    
C16   C25   S    
C7    C9    S    
C28   O16   D    
C22   O6    S    
C25   O9    D    
H11   O8    S    
C33   N2    T    
C14   C15   S    
C6    H5    S    
C4    O21   A    
Cu2   N1    S    
C15   C16   S    
Cu1   O20   S    
C24   O7    D    
C7    H1    S    
H4    O17   S    
C32   C34   S    
