data_mof_unit_pretest_1650.cif
_audit_creation_date              2012-12-10T21:00:19-0500
_audit_creation_method            fapswitch 2.2
_symmetry_space_group_name_H-M    P1
_symmetry_Int_Tables_number       1
_space_group_crystal_system       triclinic
_cell_length_a                    15.85434
_cell_length_b                    15.07984
_cell_length_c                    15.761284
_cell_angle_alpha                 90.000025
_cell_angle_beta                  89.987458
_cell_angle_gamma                 90.000061
_cell_volume                      3768.22203917

loop_
_atom_site_label
_atom_site_type_symbol
_atom_type_description
_atom_site_fract_x
_atom_site_fract_y
_atom_site_fract_z
_atom_type_partial_charge
C1    C     C_R   0.338879 0.500000 0.500013 0.897086
C2    C     C_3   0.591686 0.500052 0.950887 -0.394175
C3    C     C_3   0.591791 0.500053 0.048801 -0.326263
C4    C     C_1   0.499915 0.500000 0.826213 -0.036996
C5    C     C_1   0.499943 0.500000 0.173774 0.026837
C6    C     C_1   0.499973 0.500000 0.248999 -0.127320
C7    C     C_R   0.956405 0.580802 0.500012 0.590882
C8    C     C_R   0.956405 0.419198 0.500011 0.590885
C9    C     C_R   0.913147 0.500000 0.500002 -0.158590
C10   C     C_R   0.043876 0.419296 0.500027 -0.257538
C11   C     C_R   0.043877 0.580704 0.500027 -0.257534
C12   C     C_R   0.086937 0.500000 0.500034 -0.033269
C13   C     C_1   0.824292 0.500000 0.499981 0.141568
C14   C     C_R   0.500000 0.500000 0.337804 0.897123
C15   C     C_1   0.175695 0.500000 0.500034 0.029799
C16   C     C_1   0.250509 0.500000 0.500027 -0.175736
C17   C     C_1   0.749476 0.500000 0.499967 -0.124153
C18   C     C_R   0.451022 0.953137 0.441400 -0.141686
C19   C     C_R   0.451022 0.046863 0.441400 -0.141687
C20   C     C_R   0.500031 0.905037 0.499975 0.066591
C21   C     C_R   0.500031 0.094963 0.499975 0.066593
C22   C     C_R   0.549043 0.953137 0.558548 -0.141620
C23   C     C_R   0.549043 0.046863 0.558548 -0.141618
C24   C     C_1   0.500026 0.807156 0.499978 0.078057
C25   C     C_1   0.500026 0.192844 0.499978 0.078056
C26   C     C_R   0.661110 0.500000 0.499958 0.889420
C27   C     C_R   0.500001 0.500000 0.662180 0.902856
C28   C     C_3   0.453523 0.583595 0.048915 0.427091
C29   C     C_3   0.453610 0.416351 0.048915 0.427094
C30   C     C_3   0.454000 0.416320 0.950866 -0.447646
C31   C     C_3   0.453914 0.583628 0.950866 -0.447647
C32   C     C_1   0.499961 0.500000 0.750988 -0.170091
C33   C     C_3   0.499906 0.500000 0.082408 0.083090
C34   C     C_3   0.499858 0.500000 0.917515 0.171748
H1    H     H_    0.587465 0.918172 0.604468 0.147579
H2    H     H_    0.587465 0.081828 0.604468 0.147580
H3    H     H_    0.387093 0.583557 0.071851 0.069793
H4    H     H_    0.387180 0.416313 0.071851 0.069794
H5    H     H_    0.625883 0.559612 0.927224 0.194109
H6    H     H_    0.625945 0.440532 0.927225 0.194109
H7    H     H_    0.412600 0.081828 0.395480 0.148377
H8    H     H_    0.412600 0.918172 0.395480 0.148382
N1    N     N_1   0.500020 0.270550 0.499980 -0.079749
N2    N     N_1   0.500020 0.729450 0.499980 -0.079749
O1    O     O_R   0.378020 0.573650 0.500000 -0.609968
O2    O     O_R   0.378020 0.426350 0.500000 -0.609973
O3    O     O_R   0.500000 0.573700 0.377120 -0.600623
O4    O     O_R   0.500000 0.426300 0.377120 -0.600626
O5    O     O_R   0.621980 0.573680 0.499960 -0.598461
O6    O     O_R   0.621980 0.426320 0.499960 -0.598457
O7    O     O_R   0.500000 0.573630 0.622840 -0.610469
O8    O     O_R   0.500000 0.426370 0.622840 -0.610469
Zn1   Zn    Zn3+2 0.500000 0.598370 0.499970 1.008406
Zn2   Zn    Zn3+2 0.500000 0.401630 0.499970 1.008405
H9    H     H_    0.387808 0.584964 0.927065 0.144900
H10   H     H_    0.387895 0.414908 0.927066 0.144901
F1    F     F_    0.492095 0.339886 0.078898 -0.635090
F2    F     F_    0.491928 0.660105 0.078899 -0.635094
H11   H     H_    0.485928 0.355543 0.926823 0.232383
H12   H     H_    0.485780 0.644441 0.926823 0.232382
H13   H     H_    0.626205 0.559480 0.072384 0.216114
H14   H     H_    0.626267 0.440665 0.072384 0.216112
H15   H     H_    0.077895 0.643054 0.500032 0.189738
H16   H     H_    0.077895 0.356945 0.500030 0.189737
F3    F     F_    0.914061 0.659091 0.500004 -0.637641
F4    F     F_    0.914061 0.340909 0.500003 -0.637640

loop_
_geom_bond_atom_site_label_1
_geom_bond_atom_site_label_2
_ccdc_geom_bond_type
C31   H12   S    
C29   H4    S    
C7    C11   A    
C11   C12   A    
C2    H6    S    
C8    F4    S    
C29   C30   S    
C28   F2    S    
C6    C14   S    
N1    Zn2   S    
C18   C20   A    
O2    Zn2   S    
C12   C15   S    
C13   C17   T    
O3    Zn1   S    
C30   H11   S    
C2    C34   S    
C26   O6    A    
C2    C3    S    
C31   C34   S    
O1    Zn1   S    
C1    C16   S    
C4    C32   T    
O4    Zn2   S    
C22   H1    S    
C1    O1    A    
C21   C25   S    
O6    Zn2   S    
C10   C12   A    
C28   H3    S    
O5    Zn1   S    
C17   C26   S    
N2    Zn1   S    
C25   N1    T    
C19   C21   A    
C20   C22   A    
O8    Zn2   S    
C18   C19   A    
C11   H15   S    
C18   H8    S    
C21   C23   A    
C5    C6    T    
C24   N2    T    
C4    C34   S    
C1    O2    A    
C26   O5    A    
C7    F3    S    
C28   C33   S    
C3    C33   S    
C3    H13   S    
C15   C16   T    
C29   C33   S    
C9    C13   S    
C27   O8    A    
C8    C10   A    
C23   H2    S    
C29   F1    S    
C3    H14   S    
C7    C9    A    
C30   C34   S    
C22   C23   A    
C14   O4    A    
C31   H9    S    
C27   C32   S    
C14   O3    A    
C30   H10   S    
C2    H5    S    
C20   C24   S    
C28   C31   S    
C10   H16   S    
C19   H7    S    
C27   O7    A    
C8    C9    A    
O7    Zn1   S    
C5    C33   S    
