data_mof_unit_pretest_891.cif
_audit_creation_date              2012-10-26T20:21:18-0400
_audit_creation_method            fapswitch 2.2
_symmetry_space_group_name_H-M    P1
_symmetry_Int_Tables_number       1
_space_group_crystal_system       triclinic
_cell_length_a                    9.496871
_cell_length_b                    10.853371
_cell_length_c                    15.503787
_cell_angle_alpha                 91.055824
_cell_angle_beta                  74.310508
_cell_angle_gamma                 90.991192
_cell_volume                      1538.09555661

loop_
_atom_site_label
_atom_site_type_symbol
_atom_type_description
_atom_site_fract_x
_atom_site_fract_y
_atom_site_fract_z
_atom_type_partial_charge
C1    C     C_R   0.999987 0.262223 0.496611 0.568000
C2    C     C_R   0.096918 0.071078 0.533689 -0.153120
C3    C     C_R   0.004057 0.872217 0.502310 -0.036712
C4    C     C_R   0.998665 0.128510 0.495125 -0.051439
C5    C     C_R   0.546211 0.432129 0.560656 0.076038
C6    C     C_R   0.453584 0.568624 0.439801 0.069013
C7    C     C_R   0.397364 0.431883 0.560439 0.025136
C8    C     C_R   0.602576 0.568364 0.439676 0.035988
C9    C     C_R   0.917933 0.501247 0.671994 0.568049
C10   C     C_R   0.082239 0.492460 0.327824 0.581909
C11   C     C_R   0.870670 0.517393 0.769335 0.037101
C12   C     C_R   0.000689 0.738077 0.502510 0.583133
C13   C     C_R   0.128333 0.473167 0.229844 0.028263
C14   C     C_R   0.889879 0.630561 0.900598 -0.057080
C15   C     C_R   0.071901 0.413298 0.091421 -0.064346
C16   C     C_R   0.949267 0.594909 0.812192 -0.115621
C17   C     C_R   0.025767 0.442018 0.182755 -0.116565
C18   C     C_R   0.735413 0.467539 0.817117 0.257850
C19   C     C_R   0.277714 0.476460 0.183299 0.239402
C20   C     C_R   0.663970 0.515142 0.903639 0.006308
C21   C     C_R   0.319511 0.477539 0.088722 -0.006617
C22   C     C_R   0.746904 0.594021 0.947218 0.008255
C23   C     C_R   0.544081 0.597439 0.080404 -0.071374
C24   C     C_R   0.219463 0.430658 0.042875 0.008268
C25   C     C_R   0.514590 0.486717 0.948484 -0.032065
C26   C     C_R   0.460927 0.517928 0.040145 -0.034951
C27   C     C_3   0.436935 0.346794 0.220992 -0.016912
C28   C     C_3   0.540519 0.332052 0.279581 -0.303523
C29   C     C_3   0.737304 0.259951 0.794232 0.000968
C30   C     C_3   0.681701 0.156021 0.744479 -0.344281
C31   C     C_R   0.414654 0.433949 0.904570 -0.076248
C32   C     C_R   0.684576 0.636092 0.035724 0.242832
C33   C     C_R   0.270429 0.403052 0.950509 0.253347
C34   C     C_R   0.904390 0.057293 0.456879 0.199197
C35   C     C_R   0.103166 0.943917 0.536911 0.250562
C36   C     C_R   0.905999 0.929990 0.463332 -0.152848
Cu1   Cu    Cu3+1 0.140660 0.500020 0.500000 1.019497
Cu2   Cu    Cu3+1 0.859340 0.499980 0.500000 1.042989
H1    H     H_    0.910634 0.433462 0.217314 0.166201
H2    H     H_    0.419931 0.623374 0.391451 0.180686
H3    H     H_    0.318681 0.376865 0.608414 0.146303
H4    H     H_    0.681304 0.622975 0.391325 0.148792
H5    H     H_    0.877805 0.919137 0.067711 0.394908
H6    H     H_    0.189057 0.246755 0.757266 0.372100
H7    H     H_    0.499099 0.326743 0.150429 0.148283
H8    H     H_    0.346285 0.277794 0.242319 0.155793
H9    H     H_    0.478835 0.337782 0.351314 0.188857
H10   H     H_    0.593403 0.240623 0.266400 0.187830
H11   H     H_    0.626648 0.405126 0.264704 0.161692
H12   H     H_    0.056627 0.628709 0.777335 0.175779
H13   H     H_    0.703975 0.239788 0.867205 0.174204
H14   H     H_    0.859041 0.262497 0.769759 0.157182
H15   H     H_    0.714998 0.173488 0.671304 0.161791
H16   H     H_    0.728519 0.067192 0.756990 0.132152
H17   H     H_    0.560482 0.149588 0.767947 0.210053
H18   H     H_    0.595157 0.111605 0.507281 0.357925
H19   H     H_    0.255151 0.720248 0.657584 0.362656
H20   H     H_    0.956632 0.689901 0.930455 0.213064
H21   H     H_    0.989693 0.381694 0.059605 0.205045
H22   H     H_    0.496302 0.636371 0.146167 0.211617
H23   H     H_    0.442748 0.422360 0.833107 0.225422
H24   H     H_    0.832960 0.874861 0.434956 0.191947
H25   H     H_    0.170010 0.126547 0.561773 0.178718
H26   H     H_    0.579860 0.377164 0.608913 0.166700
N1    N     N_R   0.352080 0.500030 0.499980 -0.250667
N2    N     N_R   0.647920 0.499970 0.500020 -0.230667
O1    O     O_R   0.118740 0.319660 0.500000 -0.531959
O2    O     O_2   0.916188 0.679675 0.100272 -0.308335
O3    O     O_3   0.819419 0.869527 0.035247 -0.504518
O4    O     O_2   0.133140 0.190436 0.935791 -0.248888
O5    O     O_2   0.023340 0.376524 0.897830 -0.343993
O6    O     O_3   0.257050 0.294187 0.784137 -0.554853
O7    O     O_3   0.382736 0.468365 0.230159 -0.570142
O8    O     O_3   0.676103 0.371749 0.777759 -0.592725
O9    O     O_2   0.870289 0.220292 0.335606 -0.273335
O10   O     O_2   0.741360 0.022984 0.339651 -0.242970
O11   O     O_3   0.640503 0.180687 0.468068 -0.522321
O12   O     O_R   0.881260 0.680340 0.500000 -0.524866
O13   O     O_2   0.362631 0.836441 0.507838 -0.282155
O14   O     O_2   0.296805 0.980518 0.634952 -0.287403
O15   O     O_3   0.169015 0.766728 0.652360 -0.522956
O16   O     O_R   0.881170 0.319630 0.500010 -0.432332
O17   O     O_R   0.118830 0.680370 0.499990 -0.429599
O18   O     O_R   0.055570 0.500030 0.629830 -0.509277
O19   O     O_R   0.944430 0.499970 0.370170 -0.501193
O20   O     O_R   0.818000 0.500000 0.629840 -0.480003
O21   O     O_R   0.182000 0.500000 0.370160 -0.464618
O22   O     O_2   0.684073 0.768289 0.186007 -0.259541
S1    S     S_3+6 0.777590 0.738380 0.093322 0.000146
S2    S     S_3+6 0.165236 0.314279 0.892483 -0.024398
S3    S     S_3+6 0.789463 0.120598 0.396062 0.024614
S4    S     S_3+6 0.238693 0.882814 0.583175 0.024850

loop_
_geom_bond_atom_site_label_1
_geom_bond_atom_site_label_2
_ccdc_geom_bond_type
C2    C35   A    
C25   C31   A    
C21   C26   A    
C11   C18   A    
C8    N2    A    
C31   H23   S    
C10   O19   A    
C30   H16   S    
C29   C30   S    
C22   C32   A    
Cu2   O20   S    
C19   C21   A    
C8    H4    S    
C36   H24   S    
C20   C25   A    
C17   H1    S    
C23   C26   A    
C34   S3    S    
C3    C12   S    
O15   S4    S    
C6    N1    A    
O11   S3    S    
Cu2   N2    S    
Cu1   N1    S    
C31   C33   A    
Cu1   O18   S    
C18   C20   A    
O9    S3    D    
C35   S4    S    
C27   H7    S    
H5    O3    S    
Cu2   O16   S    
O4    S2    D    
O3    S1    S    
C23   H22   S    
C14   H20   S    
C30   H15   S    
C4    C34   A    
C10   O21   A    
C13   C19   A    
Cu2   O19   S    
C19   O7    S    
C6    H2    S    
C5    C7    A    
C6    C8    A    
C29   O8    S    
Cu2   O12   S    
C1    O16   A    
H18   O11   S    
C5    H26   S    
C12   O12   A    
O10   S3    D    
O14   S4    D    
C2    C4    A    
Cu1   Cu2   S    
C9    O20   A    
C7    N1    A    
O6    S2    S    
C28   H11   S    
C32   S1    S    
C3    C35   A    
O2    S1    D    
C9    C11   S    
O13   S4    D    
C28   H9    S    
C15   C24   A    
C20   C22   A    
C14   C16   A    
C2    H25   S    
C27   H8    S    
C29   H13   S    
C15   C17   A    
C28   H10   S    
C15   H21   S    
Cu1   O21   S    
C16   H12   S    
C5    N2    A    
C10   C13   S    
C30   H17   S    
C24   C33   A    
C13   C17   A    
C1    C4    S    
C23   C32   A    
C14   C22   A    
C25   C26   A    
C33   S2    S    
O5    S2    D    
C3    C36   A    
Cu1   O1    S    
C1    O1    A    
H6    O6    S    
C34   C36   A    
C7    H3    S    
H19   O15   S    
C11   C16   A    
C9    O18   A    
O22   S1    D    
C12   O17   A    
C18   O8    S    
C21   C24   A    
C27   C28   S    
Cu1   O17   S    
C27   O7    S    
C29   H14   S    
