data_mof_unit_pretest_428.cif
_audit_creation_date              2012-12-11T17:34:23-0500
_audit_creation_method            fapswitch 2.2
_symmetry_space_group_name_H-M    P1
_symmetry_Int_Tables_number       1
_space_group_crystal_system       triclinic
_cell_length_a                    23.820912
_cell_length_b                    7.223423
_cell_length_c                    20.592911
_cell_angle_alpha                 90.095365
_cell_angle_beta                  105.385792
_cell_angle_gamma                 90.116734
_cell_volume                      3416.38495119

loop_
_atom_site_label
_atom_site_type_symbol
_atom_type_description
_atom_site_fract_x
_atom_site_fract_y
_atom_site_fract_z
_atom_type_partial_charge
O1    O     O_R   0.449110 0.494310 0.552140 -0.544552
O2    O     O_R   0.550890 0.994310 0.447860 -0.535520
O3    O     O_R   0.440010 0.824420 0.415850 -0.519545
O4    O     O_R   0.559990 0.324420 0.584150 -0.538803
C1    C     C_R   0.425237 0.655109 0.391023 0.778199
C2    C     C_R   0.574906 0.155989 0.608993 0.773194
O5    O     O_R   0.442260 0.824040 0.549660 -0.537571
O6    O     O_R   0.557740 0.324040 0.450340 -0.545335
O7    O     O_R   0.553160 0.993960 0.582620 -0.511714
O8    O     O_R   0.446840 0.493960 0.417380 -0.539402
C3    C     C_R   0.428676 0.655377 0.567678 0.714734
C4    C     C_R   0.571329 0.155431 0.432317 0.705057
O9    O     O_3   0.536380 0.660670 0.510660 -0.366574
O10   O     O_3   0.463620 0.160670 0.489340 -0.377174
V1    V     V_3+5 0.493250 0.935680 0.498020 1.532070
V2    V     V_3+5 0.506750 0.435680 0.501980 1.486108
C5    C     C_R   0.805219 0.930704 0.146636 0.432479
C6    C     C_R   0.194708 0.431348 0.853308 0.431938
C7    C     C_R   0.845461 0.918010 0.107749 -0.151368
C8    C     C_R   0.154486 0.418625 0.892221 -0.152865
H1    H     H_    0.844189 0.798230 0.075666 0.177586
H2    H     H_    0.155736 0.299164 0.924297 0.177339
C9    C     C_R   0.886238 0.060023 0.109123 -0.177948
C10   C     C_R   0.113753 0.560199 0.890876 -0.177799
C11   C     C_R   0.886190 0.214686 0.150755 -0.180437
C12   C     C_R   0.113828 0.714457 0.849247 -0.180053
C13   C     C_R   0.846956 0.226923 0.190701 0.404506
C14   C     C_R   0.153033 0.726677 0.809258 0.404403
C15   C     C_R   0.805919 0.085104 0.188860 -0.073278
C16   C     C_R   0.194023 0.585293 0.811071 -0.072973
C17   C     C_1   0.765255 0.097916 0.230452 0.181078
C18   C     C_1   0.234660 0.598065 0.769445 0.181467
C19   C     C_1   0.731753 0.109327 0.265544 0.044885
C20   C     C_1   0.268157 0.609396 0.734342 0.045600
C21   C     C_R   0.669663 0.960753 0.329540 -0.100695
C22   C     C_R   0.331146 0.460829 0.671522 -0.096318
H3    H     H_    0.682147 0.825968 0.314940 0.134577
H4    H     H_    0.319332 0.326182 0.687006 0.135298
C23   C     C_R   0.630994 0.971804 0.370191 -0.124960
C24   C     C_R   0.369853 0.471826 0.630912 -0.141365
C25   C     C_R   0.613602 0.144855 0.390097 -0.043393
C26   C     C_R   0.386390 0.644717 0.609882 -0.038453
C27   C     C_R   0.636421 0.306390 0.368197 -0.150269
C28   C     C_R   0.362683 0.806121 0.630620 -0.128271
C29   C     C_R   0.675157 0.294830 0.327461 -0.085885
C30   C     C_R   0.323915 0.794617 0.671319 -0.087392
H5    H     H_    0.691962 0.420987 0.311169 0.143773
H6    H     H_    0.306416 0.920686 0.686702 0.142897
C31   C     C_R   0.691871 0.121962 0.307807 0.098246
C32   C     C_R   0.308053 0.621936 0.692094 0.098216
C33   C     C_R   0.644153 0.233236 0.793705 0.472715
C34   C     C_R   0.361707 0.602944 0.204107 0.475155
H7    H     H_    0.562030 0.290945 0.723472 0.164843
H8    H     H_    0.446746 0.595486 0.273245 0.162838
C35   C     C_R   0.619339 0.152406 0.674942 -0.153985
C36   C     C_R   0.381190 0.643340 0.325079 -0.153557
C37   C     C_R   0.902583 0.050299 0.767292 -0.157575
C38   C     C_R   0.099183 0.509560 0.231939 -0.155132
C39   C     C_R   0.864833 0.074802 0.703704 -0.113451
C40   C     C_R   0.138740 0.491447 0.294701 -0.109031
C41   C     C_R   0.805404 0.099101 0.696037 -0.059935
C42   C     C_R   0.197865 0.523508 0.302550 -0.054084
C43   C     C_R   0.781400 0.090703 0.751791 0.118223
C44   C     C_R   0.219017 0.583556 0.248146 0.117269
C45   C     C_R   0.820998 0.079918 0.817223 -0.000494
C46   C     C_R   0.178721 0.588966 0.183051 0.000085
C47   C     C_R   0.720090 0.111865 0.744810 -0.085706
C48   C     C_R   0.279794 0.618586 0.255424 -0.087738
C49   C     C_R   0.701606 0.163264 0.803082 -0.106311
C50   C     C_R   0.300569 0.616940 0.196197 -0.108523
C51   C     C_R   0.741452 0.142502 0.867742 0.455703
C52   C     C_R   0.259243 0.629391 0.132137 0.452153
C53   C     C_R   0.799440 0.097511 0.873765 -0.235184
C54   C     C_R   0.199759 0.620017 0.126785 -0.240100
C55   C     C_R   0.676284 0.085215 0.682404 0.330830
C56   C     C_R   0.320949 0.654378 0.319084 0.327142
C57   C     C_R   0.605035 0.232229 0.729958 -0.269479
C58   C     C_R   0.400473 0.610732 0.268045 -0.282405
C59   C     C_R   0.881769 0.056343 0.824630 -0.060061
C60   C     C_R   0.118312 0.555220 0.175413 -0.061564
H9    H     H_    0.948721 0.034032 0.772047 0.123842
H10   H     H_    0.053565 0.480436 0.226890 0.123249
H11   H     H_    0.779562 0.135983 0.646443 0.173746
H12   H     H_    0.226736 0.488388 0.350724 0.176849
H13   H     H_    0.881977 0.079953 0.660029 0.146826
H14   H     H_    0.123689 0.446674 0.337352 0.148175
H15   H     H_    0.828271 0.082177 0.923893 0.136677
H16   H     H_    0.169824 0.630652 0.077120 0.141015
O11   O     O_R   0.053190 0.709680 0.082610 -0.531541
O12   O     O_R   0.946810 0.209680 0.917390 -0.531268
O13   O     O_R   0.057740 0.380240 0.950340 -0.538916
O14   O     O_R   0.942260 0.880240 0.049660 -0.538857
C61   C     C_R   0.071342 0.549011 0.932555 0.724511
C62   C     C_R   0.928653 0.048949 0.067450 0.724534
O15   O     O_R   0.060000 0.379940 0.084150 -0.534680
O16   O     O_R   0.940000 0.879940 0.915850 -0.534755
O17   O     O_R   0.949110 0.210100 0.052140 -0.535408
O18   O     O_R   0.050890 0.710100 0.947860 -0.535670
C63   C     C_R   0.074672 0.548575 0.109062 0.675341
C64   C     C_R   0.925304 0.048179 0.890964 0.675162
O19   O     O_3   0.963630 0.543720 0.989330 -0.371258
O20   O     O_3   0.036370 0.043720 0.010670 -0.371509
V3    V     V_3+5 0.006750 0.268680 0.001980 1.461837
V4    V     V_3+5 0.993250 0.768680 0.998020 1.463191
Cl1   Cl    Cl    0.753987 0.751181 0.140818 -0.491357
Cl2   Cl    Cl    0.245897 0.252445 0.859108 -0.493016
Cl3   Cl    Cl    0.721966 0.148796 0.944644 -0.464936
Cl4   Cl    Cl    0.276767 0.676562 0.055740 -0.471320
Cl5   Cl    Cl    0.619186 0.348405 0.856277 -0.443559
Cl6   Cl    Cl    0.394112 0.551965 0.138486 -0.436255
Cl7   Cl    Cl    0.687577 0.941751 0.617103 -0.667855
Cl8   Cl    Cl    0.299984 0.747533 0.388836 -0.675037
H17   H     H_    0.917392 0.325554 0.153224 0.160837
H18   H     H_    0.082664 0.824984 0.846804 0.161127
Cl9   Cl    Cl    0.850897 0.421760 0.243283 -0.592922
Cl10  Cl    Cl    0.149109 0.920900 0.756652 -0.592683
H19   H     H_    0.614638 0.844046 0.385779 0.129287
H20   H     H_    0.386933 0.344172 0.616273 0.126594
H21   H     H_    0.624195 0.442035 0.382177 0.127343
H22   H     H_    0.374204 0.941648 0.615721 0.126276

loop_
_geom_bond_atom_site_label_1
_geom_bond_atom_site_label_2
_ccdc_geom_bond_type
C24   H20   S    
C43   C45   A    
C45   C59   A    
C51   Cl3   S    
C13   C15   A    
C5    C15   A    
C37   C59   A    
C1    C36   S    
C21   C23   A    
O1    C3    A    
C2    C35   S    
O2    C4    A    
C2    O7    A    
C6    Cl2   S    
C36   C58   A    
C23   C25   A    
O5    C3    A    
O11   V4    S    
O11   C63   A    
C36   C56   A    
C44   C48   A    
C7    H1    S    
C10   C12   A    
C5    Cl1   S    
C33   C57   A    
C38   H10   S    
C35   C57   A    
O15   C63   A    
C37   C39   A    
C28   H22   S    
C38   C40   A    
C46   C54   A    
C45   C53   A    
C3    C26   S    
C40   C42   A    
O6    V2    S    
C49   C51   A    
C53   H15   S    
C42   C44   A    
C14   Cl10  S    
C52   Cl4   S    
O15   V3    S    
C21   C31   A    
C17   C19   T    
C6    C16   A    
C29   C31   A    
C38   C60   A    
C35   C55   A    
C24   C26   A    
C33   Cl5   S    
C56   Cl8   S    
C25   C27   A    
C26   C28   A    
C34   C58   A    
O12   C64   A    
C28   C30   A    
C30   H6    S    
C29   H5    S    
C43   C47   A    
C20   C32   S    
C39   C41   A    
C8    C10   A    
C59   C64   S    
C22   C24   A    
C52   C54   A    
C41   H11   S    
C51   C53   A    
C40   H14   S    
C7    C9    A    
O5    V1    S    
C62   O17   A    
C23   H19   S    
C47   C49   A    
C18   C20   T    
O4    V2    S    
H7    C57   S    
C39   H13   S    
C4    C25   S    
C11   H17   S    
O13   C61   A    
C34   Cl6   S    
O6    C4    A    
O14   C62   A    
O1    V2    S    
O2    V1    S    
C27   C29   A    
C44   C46   A    
O17   V3    S    
O4    C2    A    
C8    H2    S    
O19   V4    S    
O16   V4    S    
C60   C63   S    
C11   C13   A    
C37   H9    S    
C47   C55   A    
C22   C32   A    
C12   H18   S    
C42   H12   S    
C21   H3    S    
C12   C14   A    
C41   C43   A    
O13   V3    S    
O3    C1    A    
C48   C56   A    
C46   C60   A    
C30   C32   A    
C55   Cl7   S    
C9    C62   S    
C22   H4    S    
O7    V1    S    
C1    O8    A    
C15   C17   S    
O8    V2    S    
C10   C61   S    
C16   C18   S    
O18   V4    S    
O16   C64   A    
C14   C16   A    
C5    C7    A    
C6    C8    A    
C9    C11   A    
O20   V3    S    
O12   V3    S    
C34   C50   A    
O14   V4    S    
C48   C50   A    
O9    V2    S    
O10   V1    S    
O3    V1    S    
C50   C52   A    
C33   C49   A    
C54   H16   S    
C19   C31   S    
C61   O18   A    
C27   H21   S    
H8    C58   S    
C13   Cl9   S    
