data_mof_unit_pretest_609.cif
_audit_creation_date              2012-12-10T19:12:23-0500
_audit_creation_method            fapswitch 2.2
_symmetry_space_group_name_H-M    P1
_symmetry_Int_Tables_number       1
_space_group_crystal_system       triclinic
_cell_length_a                    15.700132
_cell_length_b                    10.663347
_cell_length_c                    9.730572
_cell_angle_alpha                 89.340458
_cell_angle_beta                  89.443763
_cell_angle_gamma                 90.298191
_cell_volume                      1628.84529449

loop_
_atom_site_label
_atom_site_type_symbol
_atom_type_description
_atom_site_fract_x
_atom_site_fract_y
_atom_site_fract_z
_atom_type_partial_charge
C1    C     C_R   0.498211 0.257460 0.500572 0.948646
C2    C     C_3   0.082799 0.505993 0.500847 0.082411
C3    C     C_3   0.970887 0.592016 0.587676 -0.118893
C4    C     C_3   0.917237 0.505271 0.498060 0.114856
C5    C     C_3   0.028861 0.620043 0.461086 -0.256632
C6    C     C_3   0.973172 0.533535 0.371232 -0.257883
C7    C     C_1   0.173642 0.503793 0.501626 -0.001069
C8    C     C_1   0.826390 0.503798 0.498041 -0.051922
C9    C     C_3   0.581735 0.068984 0.547965 -0.466361
C10   C     C_3   0.580278 0.925449 0.540962 -0.427588
C11   C     C_3   0.423075 0.071381 0.599379 1.054554
C12   C     C_R   0.337870 0.499468 0.500556 0.924572
C13   C     C_3   0.476938 0.073850 0.352385 0.387643
C14   C     C_3   0.494997 0.120713 0.500667 -0.129631
C15   C     C_3   0.490538 0.877914 0.497565 -0.055758
C16   C     C_3   0.424479 0.927260 0.603953 -0.494137
C17   C     C_3   0.471284 0.930390 0.349657 -0.240751
C18   C     C_3   0.474530 0.373880 0.084232 0.538911
C19   C     C_3   0.473247 0.373113 0.921686 -0.261034
C20   C     C_3   0.435191 0.588304 0.079622 -0.249627
C21   C     C_3   0.585122 0.529320 0.075914 -0.139636
C22   C     C_3   0.438333 0.590697 0.917528 -0.275094
C23   C     C_R   0.494694 0.741825 0.499304 0.885028
C24   C     C_3   0.584256 0.526527 0.914092 -0.308494
C25   C     C_R   0.662119 0.500172 0.499561 0.910366
C26   C     C_3   0.971004 0.391033 0.537788 -0.230506
C27   C     C_3   0.028370 0.420782 0.412606 0.718247
C28   C     C_1   0.248960 0.501511 0.501649 -0.138414
C29   C     C_1   0.751054 0.501943 0.498678 -0.205279
C30   C     C_3   0.026540 0.477877 0.627221 -0.225081
H1    H     H_    0.597748 0.886135 0.643397 0.193454
H2    H     H_    0.442480 0.894998 0.708956 0.190640
H3    H     H_    0.416447 0.116689 0.316180 0.183238
H4    H     H_    0.524883 0.898189 0.284725 0.218343
H5    H     H_    0.359434 0.890614 0.587937 0.170840
H6    H     H_    0.945579 0.297178 0.567705 0.157061
H7    H     H_    0.521588 0.303454 0.119270 0.137477
H8    H     H_    0.516935 0.299014 0.883929 0.163145
H9    H     H_    0.408613 0.347250 0.885234 0.237018
H10   H     H_    0.369806 0.561697 0.114355 0.215322
H11   H     H_    0.373378 0.571942 0.877865 0.176323
H12   H     H_    0.627686 0.450982 0.107527 0.103350
H13   H     H_    0.630488 0.455091 0.877766 0.157326
H14   H     H_    0.606491 0.616499 0.866835 0.183808
H15   H     H_    0.444788 0.682583 0.121873 0.165174
H16   H     H_    0.949394 0.555061 0.266538 0.149693
H17   H     H_    0.455533 0.685965 0.879061 0.157558
H18   H     H_    0.054674 0.713452 0.430302 0.165507
H19   H     H_    0.944842 0.662507 0.659655 0.146929
H20   H     H_    0.050401 0.455651 0.731688 0.172723
H21   H     H_    0.594956 0.098435 0.655104 0.206310
H22   H     H_    0.634279 0.106699 0.481586 0.220882
H23   H     H_    0.629631 0.893782 0.466195 0.199239
N1    N     N_3   0.498170 0.499750 0.138610 -0.104532
N2    N     N_3   0.498850 0.496730 0.861320 -0.079203
O1    O     O_R   0.499980 0.314910 0.616040 -0.589857
O2    O     O_R   0.500040 0.314680 0.383960 -0.566846
O3    O     O_R   0.376750 0.500100 0.616020 -0.623390
O4    O     O_R   0.376810 0.499870 0.383940 -0.579166
O5    O     O_R   0.499960 0.685320 0.616040 -0.639185
O6    O     O_R   0.500020 0.685090 0.383960 -0.630931
O7    O     O_R   0.623190 0.500130 0.616060 -0.628776
O8    O     O_R   0.623250 0.499900 0.383980 -0.630845
Zn1   Zn    Zn3+2 0.499960 0.500150 0.654960 0.932435
Zn2   Zn    Zn3+2 0.500040 0.499850 0.345040 0.990445
F1    F     F_    0.060435 0.332856 0.322779 -0.646244
F2    F     F_    0.434305 0.115087 0.731789 -0.685821
F3    F     F_    0.541533 0.112187 0.262464 -0.706410
C31   C     C_R   0.391506 0.887516 0.272122 0.076324
C32   C     C_R   0.382884 0.928878 0.134500 -0.156921
C33   C     C_R   0.313635 0.891511 0.055503 -0.116484
C34   C     C_R   0.251704 0.811633 0.111904 -0.123439
C35   C     C_R   0.259405 0.768200 0.246905 -0.141028
C36   C     C_R   0.328872 0.804694 0.326314 -0.047971
H24   H     H_    0.430679 0.989655 0.087523 0.185077
H25   H     H_    0.308340 0.924041 0.950150 0.169527
H26   H     H_    0.198180 0.782325 0.050571 0.141211
H27   H     H_    0.211911 0.704616 0.289594 0.137602
H28   H     H_    0.333428 0.763762 0.427314 0.085423
F4    F     F_    0.344352 0.112193 0.553799 -0.676845
F5    F     F_    0.396035 0.335672 0.136657 -0.638033
C37   C     C_R   0.629862 0.650125 0.122864 0.223458
C38   C     C_R   0.602984 0.770852 0.080921 -0.210387
C39   C     C_R   0.651382 0.877554 0.110396 -0.137878
C40   C     C_R   0.727313 0.866535 0.182315 -0.108283
C41   C     C_R   0.757195 0.748172 0.219034 -0.174539
C42   C     C_R   0.710374 0.641123 0.185859 -0.129175
H29   H     H_    0.547257 0.784354 0.019263 0.120125
H30   H     H_    0.629832 0.969088 0.076907 0.184906
H31   H     H_    0.764100 0.949433 0.206263 0.146171
H32   H     H_    0.817754 0.738964 0.270353 0.143944
H33   H     H_    0.738236 0.550538 0.207728 0.132738

loop_
_geom_bond_atom_site_label_1
_geom_bond_atom_site_label_2
_ccdc_geom_bond_type
O8    Zn2   S    
C17   C31   S    
C35   C36   A    
C2    C7    S    
C9    H21   S    
C4    C8    S    
C3    H19   S    
N1    Zn2   S    
C40   C41   A    
C24   N2    S    
C26   C27   S    
C12   C28   S    
C5    C6    S    
C8    C29   T    
C1    O1    A    
C41   H32   S    
C16   H5    S    
C21   N1    S    
C20   H10   S    
C11   C14   S    
C22   H11   S    
C19   N2    S    
C15   C16   S    
C18   F5    S    
C18   C19   S    
C25   O8    A    
C10   H23   S    
O7    Zn1   S    
C12   O4    A    
C10   H1    S    
C38   C39   A    
C35   H27   S    
O1    Zn1   S    
C32   C33   A    
C9    C10   S    
C20   H15   S    
C12   O3    A    
C15   C23   S    
C22   H17   S    
C30   H20   S    
C13   C14   S    
C25   C29   S    
C9    H22   S    
C11   F2    S    
O3    Zn1   S    
C23   O5    A    
C5    H18   S    
C2    C30   S    
C39   C40   A    
C4    C6    S    
C41   C42   A    
C7    C28   T    
C3    C30   S    
C9    C14   S    
C13   H3    S    
C34   H26   S    
C19   H8    S    
C1    O2    A    
C11   C16   S    
C6    C27   S    
N2    Zn1   S    
C31   C36   A    
C2    C27   S    
C19   H9    S    
C20   N1    S    
C20   C22   S    
C26   C30   S    
C36   H28   S    
C24   H14   S    
C2    C5    S    
C17   H4    S    
C3    C4    S    
C26   H6    S    
C15   C17   S    
C6    H16   S    
C10   C15   S    
C18   H7    S    
O2    Zn2   S    
C34   C35   A    
C3    C5    S    
C4    C26   S    
C40   H31   S    
C22   N2    S    
C16   H2    S    
C13   C17   S    
O5    Zn1   S    
C33   C34   A    
C27   F1    S    
O4    Zn2   S    
C33   H25   S    
C38   H29   S    
C25   O7    A    
C31   C32   A    
C11   F4    S    
C18   N1    S    
C21   H12   S    
O6    Zn2   S    
C23   O6    A    
C21   C37   S    
C37   C38   A    
C39   H30   S    
C21   C24   S    
C32   H24   S    
C24   H13   S    
C1    C14   S    
C42   H33   S    
C37   C42   A    
C13   F3    S    
