data_mof_unit_pretest_5.cif
_audit_creation_date              2012-12-10T16:53:54-0500
_audit_creation_method            fapswitch 2.2
_symmetry_space_group_name_H-M    P1
_symmetry_Int_Tables_number       1
_space_group_crystal_system       triclinic
_cell_length_a                    7.797345
_cell_length_b                    8.57058
_cell_length_c                    10.625241
_cell_angle_alpha                 91.941185
_cell_angle_beta                  84.771606
_cell_angle_gamma                 93.64115
_cell_volume                      705.397600854

loop_
_atom_site_label
_atom_site_type_symbol
_atom_type_description
_atom_site_fract_x
_atom_site_fract_y
_atom_site_fract_z
_atom_type_partial_charge
C1    C     C_R   0.544770 0.794247 0.491866 1.033476
C2    C     C_3   0.502227 0.506186 0.121697 -0.078230
C3    C     C_3   0.375758 0.373642 0.076407 -0.416360
C4    C     C_3   0.686276 0.479977 0.057988 -0.322675
C5    C     C_2   0.565492 0.957802 0.490442 -0.364802
C6    C     C_2   0.430083 0.043198 0.476242 0.236042
C7    C     C_R   0.500886 0.503134 0.742176 0.914836
C8    C     C_R   0.454284 0.205525 0.497093 0.869087
C9    C     C_R   0.500086 0.500307 0.257951 0.919906
C10   C     C_3   0.436414 0.668541 0.937537 0.606722
C11   C     C_3   0.444598 0.667649 0.083967 0.162953
C12   C     C_3   0.382679 0.369193 0.932138 -0.429938
C13   C     C_3   0.686880 0.487143 0.915592 -0.411907
C14   C     C_3   0.501048 0.508606 0.878976 -0.049107
H1    H     H_    0.249554 0.372024 0.902807 0.235014
H2    H     H_    0.736642 0.376743 0.872269 0.216122
H3    H     H_    0.782799 0.569801 0.091135 0.255225
N1    N     N_2   0.950330 0.457950 0.465890 0.098909
N2    N     N_2   0.049670 0.542050 0.534110 -0.088229
O1    O     O_R   0.389250 0.738570 0.508370 -0.559726
O2    O     O_R   0.678390 0.711620 0.486510 -0.616649
O3    O     O_R   0.355430 0.513500 0.696140 -0.589017
O4    O     O_R   0.644580 0.486550 0.674270 -0.649237
O5    O     O_R   0.321610 0.288380 0.513490 -0.549405
O6    O     O_R   0.610750 0.261430 0.491630 -0.623515
O7    O     O_R   0.355420 0.513450 0.325730 -0.586863
O8    O     O_R   0.644570 0.486500 0.303860 -0.600566
Zn1   Zn    Zn3+2 0.306940 0.517990 0.514600 1.109139
Zn2   Zn    Zn3+2 0.693060 0.482010 0.485400 1.068486
Cl1   Cl    Cl    0.216224 0.695959 0.907991 -0.581015
H4    H     H_    0.727347 0.363514 0.082785 0.221574
H5    H     H_    0.433529 0.256605 0.894579 0.228823
H6    H     H_    0.409391 0.258414 0.109524 0.243203
H7    H     H_    0.690204 0.008934 0.514131 0.190869
Cl2   Cl    Cl    0.230643 0.973746 0.418796 -0.470735
Cl3   Cl    Cl    0.039517 0.322952 0.359739 -0.425061
H8    H     H_    0.986325 0.619132 0.595507 0.191235
Cl4   Cl    Cl    0.561409 0.830597 0.863465 -0.541414
Cl5   Cl    Cl    0.576640 0.827204 0.146820 -0.521263
H9    H     H_    0.313578 0.683307 0.131903 0.179346
H10   H     H_    0.241543 0.393482 0.115921 0.240420
H11   H     H_    0.777624 0.584846 0.880476 0.254329

loop_
_geom_bond_atom_site_label_1
_geom_bond_atom_site_label_2
_ccdc_geom_bond_type
C2    C4    S    
C1    O2    A    
N2    Zn1   S    
O8    Zn2   S    
C7    O3    A    
O1    Zn1   S    
C10   Cl1   S    
O7    Zn1   S    
C12   H1    S    
C10   Cl4   S    
C5    H7    S    
C2    C3    S    
N1    Zn2   S    
O3    Zn1   S    
C13   C14   S    
C12   H5    S    
C11   Cl5   S    
C8    O6    A    
C5    C6    D    
N1    Cl3   S    
C1    C5    S    
C2    C11   S    
O4    Zn2   S    
C13   H11   S    
C8    O5    A    
C12   C14   S    
C9    O7    A    
O6    Zn2   S    
C11   H9    S    
C7    O4    A    
C4    H4    S    
C10   C11   S    
C4    H3    S    
C6    Cl2   S    
C9    O8    A    
N1    N2    D    
C10   C14   S    
C13   H2    S    
C4    C13   S    
C3    H6    S    
C3    H10   S    
C1    O1    A    
C6    C8    S    
C3    C12   S    
N2    H8    S    
C2    C9    S    
O2    Zn2   S    
C7    C14   S    
O5    Zn1   S    
