data_mof_unit_pretest_1636.cif
_audit_creation_date              2012-12-10T18:25:34-0500
_audit_creation_method            fapswitch 2.2
_symmetry_space_group_name_H-M    P1
_symmetry_Int_Tables_number       1
_space_group_crystal_system       triclinic
_cell_length_a                    25.74879
_cell_length_b                    25.739517
_cell_length_c                    18.20052
_cell_angle_alpha                 89.999966
_cell_angle_beta                  135.00067
_cell_angle_gamma                 89.99999
_cell_volume                      8529.44824312

loop_
_atom_site_label
_atom_site_type_symbol
_atom_type_description
_atom_site_fract_x
_atom_site_fract_y
_atom_site_fract_z
_atom_type_partial_charge
C1    C     C_R   0.108740 0.250095 0.500102 0.769473
C2    C     C_3   0.449278 0.749779 0.898126 0.197682
C3    C     C_R   0.749977 0.391304 0.499876 0.735593
C4    C     C_R   0.108731 0.249947 0.217411 0.741525
C5    C     C_R   0.108636 0.749945 0.217410 0.741343
C6    C     C_R   0.608729 0.749944 0.217411 0.741515
C7    C     C_R   0.608629 0.249952 0.217410 0.741344
C8    C     C_R   0.391243 0.249932 0.782588 0.743961
C9    C     C_R   0.391343 0.749965 0.782589 0.743533
C10   C     C_R   0.891251 0.749924 0.782588 0.743935
C11   C     C_R   0.891347 0.249968 0.782588 0.743523
C12   C     C_3   0.429971 0.209778 0.940428 -0.375835
C13   C     C_3   0.948833 0.749740 0.898124 0.199957
C14   C     C_3   0.485035 0.804296 0.939968 -0.402080
C15   C     C_3   0.930134 0.709612 0.940428 -0.375692
C16   C     C_3   0.984943 0.304328 0.939967 -0.401745
C17   C     C_3   0.489562 0.209783 0.059614 -0.388368
C18   C     C_3   0.545067 0.804287 0.060037 -0.399450
C19   C     C_3   0.989721 0.709620 0.059614 -0.388490
C20   C     C_3   0.044973 0.304319 0.060035 -0.399719
C21   C     C_3   0.454994 0.304302 0.939958 -0.397923
C22   C     C_3   0.415662 0.735088 0.939984 -0.382505
C23   C     C_3   0.954808 0.804236 0.939959 -0.398242
C24   C     C_3   0.949285 0.249786 0.898125 0.197633
C25   C     C_3   0.915697 0.234998 0.939984 -0.382582
C26   C     C_3   0.550684 0.249767 0.101870 0.207948
C27   C     C_3   0.551142 0.749766 0.101873 0.207792
C28   C     C_3   0.050697 0.749754 0.101871 0.207917
C29   C     C_3   0.051148 0.249772 0.101872 0.207819
C30   C     C_3   0.515022 0.304310 0.060026 -0.402228
C31   C     C_3   0.475691 0.735083 0.060054 -0.405198
C32   C     C_3   0.014838 0.804245 0.060028 -0.401978
C33   C     C_R   0.108745 0.749900 0.500113 0.769310
C34   C     C_3   0.975726 0.234990 0.060053 -0.405180
C35   C     C_3   0.584269 0.234979 0.060007 -0.398523
C36   C     C_3   0.569912 0.709713 0.059567 -0.385529
C37   C     C_3   0.084339 0.735163 0.060008 -0.398523
C38   C     C_3   0.069991 0.209794 0.059566 -0.385377
C39   C     C_3   0.523598 0.233392 0.607873 -0.437438
C40   C     C_3   0.523618 0.766531 0.607913 -0.437779
C41   C     C_3   0.023609 0.733413 0.607896 -0.437447
C42   C     C_3   0.023585 0.266615 0.607847 -0.437821
C43   C     C_3   0.583971 0.233349 0.608483 0.501134
C44   C     C_R   0.608742 0.750098 0.500107 0.769408
C45   C     C_3   0.583993 0.766564 0.608531 0.501020
C46   C     C_3   0.083985 0.733378 0.608512 0.501229
C47   C     C_3   0.083962 0.266642 0.608468 0.501089
C48   C     C_3   0.456603 0.304676 0.473263 -0.401889
C49   C     C_3   0.456520 0.695340 0.473100 -0.401847
C50   C     C_3   0.956581 0.804668 0.473220 -0.402261
C51   C     C_3   0.956608 0.195314 0.473275 -0.402188
C52   C     C_3   0.428972 0.210889 0.417474 -0.403517
C53   C     C_3   0.429023 0.789168 0.417576 -0.403315
C54   C     C_3   0.928991 0.710866 0.417510 -0.403649
C55   C     C_R   0.608744 0.249901 0.500110 0.769355
C56   C     C_3   0.928952 0.289092 0.417432 -0.403456
C57   C     C_3   0.448787 0.249739 0.499562 0.132608
C58   C     C_3   0.448783 0.750259 0.499555 0.132654
C59   C     C_3   0.948789 0.749736 0.499567 0.133119
C60   C     C_3   0.948779 0.250254 0.499545 0.133148
C61   C     C_R   0.391159 0.249970 0.499781 0.770638
C62   C     C_R   0.391157 0.750028 0.499778 0.770687
C63   C     C_R   0.891160 0.749969 0.499784 0.770610
C64   C     C_R   0.891155 0.250026 0.499773 0.770659
C65   C     C_3   0.550945 0.249757 0.500127 0.098798
C66   C     C_3   0.524241 0.234969 0.939940 -0.399165
C67   C     C_3   0.550941 0.750240 0.500121 0.098774
C68   C     C_3   0.050947 0.749754 0.500132 0.099304
C69   C     C_3   0.050936 0.250236 0.500110 0.099271
C70   C     C_3   0.516405 0.304620 0.472885 -0.375489
C71   C     C_3   0.516317 0.695397 0.472709 -0.375489
C72   C     C_3   0.016375 0.804610 0.472826 -0.375920
C73   C     C_3   0.016396 0.195372 0.472867 -0.375919
C74   C     C_3   0.488779 0.210824 0.417928 -0.500336
C75   C     C_3   0.488834 0.789238 0.418039 -0.500098
C76   C     C_3   0.988802 0.710795 0.417975 -0.500445
C77   C     C_3   0.510328 0.709722 0.940383 -0.384111
C78   C     C_3   0.988767 0.289168 0.417906 -0.500261
C79   C     C_3   0.249969 0.029795 0.580426 -0.383528
C80   C     C_3   0.249970 0.970205 0.580427 -0.383294
C81   C     C_3   0.680709 0.530016 0.470035 -0.400090
C82   C     C_3   0.680709 0.469983 0.470035 -0.400098
C83   C     C_3   0.319258 0.030015 0.529977 -0.401161
C84   C     C_3   0.319258 0.969984 0.529977 -0.401143
C85   C     C_3   0.819274 0.530015 0.608576 -0.400786
C86   C     C_3   0.819275 0.469983 0.608576 -0.400476
C87   C     C_3   0.180692 0.030015 0.391353 -0.401268
C88   C     C_3   0.024312 0.735153 0.939940 -0.399054
C89   C     C_3   0.180691 0.969983 0.391353 -0.401035
C90   C     C_3   0.749926 0.529794 0.419473 -0.386727
C91   C     C_3   0.749925 0.470205 0.419472 -0.386573
C92   C     C_3   0.249974 0.050932 0.500439 0.210165
C93   C     C_3   0.249974 0.949067 0.500439 0.209977
C94   C     C_3   0.749971 0.550932 0.499509 0.211697
C95   C     C_3   0.749971 0.449067 0.499509 0.211521
C96   C     C_3   0.249548 0.449061 0.499563 0.209985
C97   C     C_3   0.249548 0.550938 0.499563 0.210157
C98   C     C_3   0.750472 0.949061 0.500481 0.209999
C99   C     C_3   0.010407 0.209804 0.940383 -0.384284
C100  C     C_3   0.750472 0.050938 0.500481 0.210164
C101  C     C_3   0.289238 0.469982 0.469922 -0.400206
C102  C     C_3   0.289238 0.530017 0.469921 -0.400189
C103  C     C_3   0.710653 0.969982 0.391374 -0.400754
C104  C     C_3   0.710652 0.030016 0.391374 -0.400978
C105  C     C_3   0.169587 0.470204 0.419653 -0.386169
C106  C     C_3   0.169587 0.529796 0.419655 -0.386337
C107  C     C_3   0.710773 0.969983 0.530107 -0.400946
C108  C     C_3   0.710774 0.030016 0.530107 -0.400984
C109  C     C_R   0.249902 0.391288 0.499918 0.740773
C110  C     C_3   0.448819 0.249754 0.898123 0.199895
C111  C     C_R   0.249902 0.608711 0.499918 0.740831
C112  C     C_R   0.750105 0.891288 0.500117 0.740829
C113  C     C_R   0.750105 0.108711 0.500117 0.740897
C114  C     C_3   0.289379 0.469982 0.608674 -0.400349
C115  C     C_3   0.289380 0.530016 0.608674 -0.400639
C116  C     C_3   0.830434 0.970203 0.580401 -0.385114
C117  C     C_3   0.830434 0.029797 0.580400 -0.385285
C118  C     C_R   0.249979 0.108695 0.500081 0.735962
C119  C     C_R   0.249979 0.891304 0.500081 0.735893
C120  C     C_R   0.749977 0.608695 0.499876 0.735658
F1    F     F_    0.640100 0.266750 0.685263 -0.666197
F2    F     F_    0.640059 0.733093 0.685205 -0.666647
F3    F     F_    0.140087 0.766809 0.685252 -0.666332
F4    F     F_    0.140074 0.233227 0.685240 -0.666857
H1    H     H_    0.376075 0.219465 0.911985 0.194706
H2    H     H_    0.389841 0.695955 0.910987 0.152397
H3    H     H_    0.860492 0.044027 0.659807 0.173616
H4    H     H_    0.347051 0.455677 0.667788 0.178403
H5    H     H_    0.347053 0.544320 0.667786 0.178190
H6    H     H_    0.860404 0.955971 0.560992 0.174565
H7    H     H_    0.860402 0.044027 0.560987 0.174564
H8    H     H_    0.261320 0.455485 0.391599 0.147909
H9    H     H_    0.261319 0.544514 0.391599 0.147825
H10   H     H_    0.652980 0.955677 0.332249 0.177806
H11   H     H_    0.652979 0.044319 0.332251 0.177588
H12   H     H_    0.139523 0.455975 0.340243 0.173486
H13   H     H_    0.968489 0.833915 0.911323 0.177548
H14   H     H_    0.139521 0.544026 0.340245 0.173260
H15   H     H_    0.653103 0.955679 0.473945 0.177354
H16   H     H_    0.653104 0.044321 0.473946 0.177325
H17   H     H_    0.139623 0.455973 0.439073 0.172867
H18   H     H_    0.139625 0.544025 0.439077 0.172858
H19   H     H_    0.738685 0.955486 0.608426 0.148984
H20   H     H_    0.738685 0.044513 0.608427 0.148874
H21   H     H_    0.464126 0.219466 0.088097 0.177903
H22   H     H_    0.531335 0.833914 0.088674 0.178644
H23   H     H_    0.964240 0.719159 0.088086 0.178038
H24   H     H_    0.889946 0.195847 0.910985 0.152307
H25   H     H_    0.031181 0.333893 0.088666 0.178532
H26   H     H_    0.401375 0.315588 0.910980 0.156213
H27   H     H_    0.371831 0.763237 0.911392 0.198109
H28   H     H_    0.901146 0.815375 0.910986 0.156237
H29   H     H_    0.871817 0.263093 0.911392 0.198141
H30   H     H_    0.490395 0.315597 0.089037 0.150102
H31   H     H_    0.460470 0.763234 0.088679 0.182266
H32   H     H_    0.990168 0.815389 0.089039 0.150195
H33   H     H_    0.960456 0.263084 0.088684 0.182187
H34   H     H_    0.539512 0.263060 0.911306 0.182464
H35   H     H_    0.557421 0.333886 0.088614 0.177664
H36   H     H_    0.486371 0.670043 0.911914 0.173575
H37   H     H_    0.039484 0.763357 0.911313 0.182504
H38   H     H_    0.986526 0.170108 0.911916 0.173444
H39   H     H_    0.521002 0.195812 0.910953 0.148713
H40   H     H_    0.535790 0.719337 0.911912 0.178283
H41   H     H_    0.021218 0.696037 0.910949 0.148785
H42   H     H_    0.035849 0.219493 0.911910 0.178211
H43   H     H_    0.610024 0.195828 0.089009 0.148290
H44   H     H_    0.623828 0.719321 0.088011 0.175221
H45   H     H_    0.110238 0.696052 0.089010 0.148185
H46   H     H_    0.478858 0.695950 0.089047 0.149278
H47   H     H_    0.123889 0.219476 0.088014 0.175149
H48   H     H_    0.057131 0.833925 0.088619 0.177732
H49   H     H_    0.978964 0.195835 0.089042 0.149378
H50   H     H_    0.539086 0.260474 0.668458 0.215195
H51   H     H_    0.539064 0.739409 0.668424 0.214946
H52   H     H_    0.039082 0.760504 0.668462 0.215142
H53   H     H_    0.442687 0.833922 0.911382 0.180497
H54   H     H_    0.039073 0.239550 0.668451 0.214831
H55   H     H_    0.519054 0.193900 0.627832 0.106674
H56   H     H_    0.519132 0.806012 0.627977 0.106538
H57   H     H_    0.019086 0.693921 0.627885 0.106313
H58   H     H_    0.019035 0.306116 0.627771 0.106202
H59   H     H_    0.607659 0.193618 0.627589 0.039477
H60   H     H_    0.607755 0.806279 0.627772 0.039421
H61   H     H_    0.107707 0.693653 0.627674 0.039026
H62   H     H_    0.107670 0.306369 0.627591 0.039018
H63   H     H_    0.471488 0.333400 0.531372 0.190395
H64   H     H_    0.876198 0.719147 0.911986 0.194803
H65   H     H_    0.471370 0.666575 0.531132 0.190276
H66   H     H_    0.971464 0.833403 0.531315 0.189982
H67   H     H_    0.971519 0.166601 0.531416 0.189928
H68   H     H_    0.559323 0.333750 0.529872 0.215918
H69   H     H_    0.559192 0.666219 0.529600 0.215792
H70   H     H_    0.059279 0.833760 0.529774 0.215496
H71   H     H_    0.059316 0.166238 0.529841 0.215437
H72   H     H_    0.375448 0.221721 0.338600 0.190388
H73   H     H_    0.375487 0.778389 0.338669 0.190815
H74   H     H_    0.875464 0.721686 0.338624 0.190397
H75   H     H_    0.942543 0.333904 0.911380 0.180799
H76   H     H_    0.875437 0.278240 0.338564 0.190756
H77   H     H_    0.425391 0.170078 0.911966 0.172995
H78   H     H_    0.509680 0.815515 0.910953 0.149796
H79   H     H_    0.925707 0.669947 0.911966 0.173061
H80   H     H_    0.009568 0.315618 0.910953 0.149829
H81   H     H_    0.423156 0.170943 0.434413 0.181410
H82   H     H_    0.423257 0.829102 0.434624 0.181362
H83   H     H_    0.923183 0.670923 0.434477 0.180935
H84   H     H_    0.923108 0.329040 0.434333 0.180975
H85   H     H_    0.511581 0.170867 0.435285 0.178866
H86   H     H_    0.628143 0.263078 0.088591 0.179293
H87   H     H_    0.511700 0.829183 0.435526 0.178807
H88   H     H_    0.011628 0.670841 0.435386 0.178367
H89   H     H_    0.011567 0.329128 0.435271 0.178403
H90   H     H_    0.463776 0.221466 0.339145 0.205297
H91   H     H_    0.463816 0.778660 0.339220 0.205704
H92   H     H_    0.963795 0.721411 0.339177 0.205310
H93   H     H_    0.963773 0.278531 0.339123 0.205650
H94   H     H_    0.403284 0.317180 0.395795 0.151875
H95   H     H_    0.403182 0.682890 0.395599 0.152089
H96   H     H_    0.903254 0.817158 0.395744 0.151678
H97   H     H_    0.574411 0.670032 0.088024 0.172813
H98   H     H_    0.903289 0.182795 0.395824 0.151886
H99   H     H_    0.491776 0.316600 0.394900 0.143041
H100  H     H_    0.491661 0.683481 0.394678 0.143268
H101  H     H_    0.991729 0.816564 0.394817 0.142873
H102  H     H_    0.991751 0.183399 0.394868 0.143088
H103  H     H_    0.299314 0.044025 0.659818 0.174735
H104  H     H_    0.299318 0.955975 0.659820 0.175008
H105  H     H_    0.679262 0.544321 0.526279 0.181576
H106  H     H_    0.679263 0.455679 0.526280 0.181605
H107  H     H_    0.200618 0.044025 0.561077 0.176747
H108  H     H_    0.128110 0.763372 0.088588 0.179422
H109  H     H_    0.200621 0.955973 0.561082 0.176757
H110  H     H_    0.630290 0.544513 0.391747 0.147482
H111  H     H_    0.630290 0.455486 0.391747 0.147572
H112  H     H_    0.369662 0.044512 0.608279 0.147948
H113  H     H_    0.369661 0.955487 0.608279 0.148050
H114  H     H_    0.820782 0.544319 0.667776 0.179745
H115  H     H_    0.820786 0.455678 0.667778 0.180000
H116  H     H_    0.179217 0.044319 0.332185 0.177417
H117  H     H_    0.179213 0.955678 0.332183 0.177631
H118  H     H_    0.799258 0.544024 0.438772 0.172813
H119  H     H_    0.074562 0.170095 0.088020 0.173082
H120  H     H_    0.799254 0.455975 0.438767 0.172816
H121  H     H_    0.130287 0.044513 0.368804 0.148032
H122  H     H_    0.130286 0.955486 0.368807 0.148090
H123  H     H_    0.700563 0.544026 0.340095 0.172938
H124  H     H_    0.700559 0.455975 0.340093 0.173161
H125  H     H_    0.513445 0.170086 0.088073 0.173923
H126  H     H_    0.598705 0.815499 0.089008 0.148760
H127  H     H_    0.013755 0.669960 0.088085 0.173580
H128  H     H_    0.098590 0.315604 0.089010 0.148686
H129  H     H_    0.346907 0.455677 0.526073 0.179165
H130  H     H_    0.468786 0.333877 0.911328 0.177876
H131  H     H_    0.346907 0.544323 0.526072 0.179140
H132  H     H_    0.738476 0.955485 0.368762 0.148046
H133  H     H_    0.738474 0.044514 0.368760 0.147998
H134  H     H_    0.320739 0.044319 0.473766 0.177393
H135  H     H_    0.320738 0.955680 0.473765 0.177417
H136  H     H_    0.869663 0.544512 0.631081 0.147494
H137  H     H_    0.869664 0.455487 0.631078 0.147557
H138  H     H_    0.261565 0.455485 0.631300 0.148699
H139  H     H_    0.261567 0.544513 0.631302 0.148614
H140  H     H_    0.860490 0.955973 0.659808 0.173845
O1    O     O_3   0.249990 0.249990 0.500000 -0.466717
O2    O     O_R   0.249990 0.866860 0.561260 -0.651521
O3    O     O_R   0.749990 0.633140 0.561260 -0.648488
O4    O     O_R   0.749990 0.366860 0.561260 -0.648353
O5    O     O_R   0.102520 0.280640 0.438750 -0.663458
O6    O     O_R   0.102520 0.719360 0.438750 -0.663575
O7    O     O_R   0.602520 0.780640 0.438750 -0.663382
O8    O     O_R   0.602520 0.219360 0.438750 -0.663521
O9    O     O_R   0.336190 0.219350 0.438710 -0.651883
O10   O     O_R   0.336190 0.780650 0.438710 -0.651754
O11   O     O_R   0.836190 0.719350 0.438710 -0.651945
O12   O     O_3   0.249990 0.750010 0.500000 -0.466722
O13   O     O_R   0.836190 0.280650 0.438710 -0.651814
O14   O     O_R   0.163790 0.219360 0.561280 -0.588869
O15   O     O_R   0.163790 0.780640 0.561280 -0.588815
O16   O     O_R   0.663790 0.719360 0.561280 -0.588704
O17   O     O_R   0.663790 0.280640 0.561280 -0.588733
O18   O     O_R   0.397470 0.280620 0.561260 -0.648154
O19   O     O_R   0.397470 0.719380 0.561260 -0.648264
O20   O     O_R   0.897470 0.780620 0.561260 -0.648243
O21   O     O_R   0.897470 0.219380 0.561260 -0.648351
O22   O     O_R   0.188730 0.366850 0.438750 -0.651769
O23   O     O_3   0.749990 0.749990 0.500000 -0.466739
O24   O     O_R   0.188730 0.633150 0.438750 -0.651826
O25   O     O_R   0.688730 0.866850 0.438750 -0.648884
O26   O     O_R   0.688730 0.133150 0.438750 -0.648941
O27   O     O_R   0.249980 0.133140 0.438710 -0.650191
O28   O     O_R   0.249980 0.866860 0.438710 -0.650143
O29   O     O_R   0.749980 0.633140 0.438710 -0.653144
O30   O     O_R   0.749980 0.366860 0.438710 -0.653097
O31   O     O_R   0.102500 0.280640 0.266310 -0.648406
O32   O     O_R   0.102500 0.719360 0.266310 -0.651310
O33   O     O_R   0.602500 0.780640 0.266310 -0.648297
O34   O     O_3   0.749990 0.250010 0.500000 -0.466738
O35   O     O_R   0.602500 0.219360 0.266310 -0.651208
O36   O     O_R   0.336220 0.219350 0.733700 -0.637948
O37   O     O_R   0.336220 0.780650 0.733700 -0.634656
O38   O     O_R   0.836220 0.719350 0.733700 -0.637802
O39   O     O_R   0.836220 0.280650 0.733700 -0.634502
O40   O     O_R   0.163750 0.219360 0.266290 -0.652277
O41   O     O_R   0.163750 0.780640 0.266290 -0.649371
O42   O     O_R   0.663750 0.719360 0.266290 -0.652376
O43   O     O_R   0.663750 0.280640 0.266290 -0.649475
O44   O     O_R   0.397490 0.280620 0.733700 -0.649845
O45   O     O_R   0.311270 0.366840 0.561280 -0.648235
O46   O     O_R   0.397490 0.719380 0.733700 -0.652698
O47   O     O_R   0.897490 0.780620 0.733700 -0.649978
O48   O     O_R   0.897490 0.219380 0.733700 -0.652822
O49   O     O_R   0.311270 0.633160 0.561280 -0.648311
O50   O     O_R   0.811270 0.866840 0.561280 -0.651185
O51   O     O_R   0.811270 0.133160 0.561280 -0.651262
O52   O     O_R   0.249990 0.133140 0.561260 -0.651676
Zn1   Zn    Zn3+2 0.337540 0.293760 0.587540 0.947055
Zn2   Zn    Zn3+2 0.249980 0.793780 0.412450 0.939222
Zn3   Zn    Zn3+2 0.749980 0.706220 0.412450 0.936935
Zn4   Zn    Zn3+2 0.749980 0.293780 0.412450 0.938094
Zn5   Zn    Zn3+2 0.250000 0.206220 0.587540 0.980893
Zn6   Zn    Zn3+2 0.250000 0.793780 0.587540 0.982048
Zn7   Zn    Zn3+2 0.750000 0.706220 0.587540 0.982198
Zn8   Zn    Zn3+2 0.750000 0.293780 0.587540 0.983321
Zn9   Zn    Zn3+2 0.337540 0.706240 0.587540 0.945874
Zn10  Zn    Zn3+2 0.837540 0.793760 0.587540 0.945878
Zn11  Zn    Zn3+2 0.837540 0.206240 0.587540 0.944715
Zn12  Zn    Zn3+2 0.162450 0.293770 0.412470 0.940310
Zn13  Zn    Zn3+2 0.162450 0.706230 0.412470 0.939100
Zn14  Zn    Zn3+2 0.662450 0.793770 0.412470 0.941415
Zn15  Zn    Zn3+2 0.662450 0.206230 0.412470 0.940220
Zn16  Zn    Zn3+2 0.249980 0.206220 0.412450 0.938066

loop_
_geom_bond_atom_site_label_1
_geom_bond_atom_site_label_2
_ccdc_geom_bond_type
C37   H108  S    
C104  H11   S    
C52   H72   S    
C96   C105  S    
C21   C110  S    
O36   Zn5   S    
C70   H68   S    
C38   H47   S    
C6    O42   A    
C50   C59   S    
O18   Zn1   S    
C72   H70   S    
C111  O49   A    
C100  C104  S    
C20   H25   S    
C102  H131  S    
C50   C72   S    
C37   C88   S    
C21   H130  S    
C40   H56   S    
C2    C22   S    
O31   Zn12  S    
O1    Zn16  S    
C97   C115  S    
C25   C34   S    
C32   H48   S    
C120  O3    A    
C81   H105  S    
C82   H111  S    
C74   H90   S    
C103  H132  S    
C96   C114  S    
C53   C75   S    
O17   Zn8   S    
C39   H50   S    
C55   C65   S    
C106  H18   S    
C40   C58   S    
C27   C31   S    
O6    Zn13  S    
C28   C32   S    
C62   O19   A    
O24   Zn13  S    
C35   C66   S    
C101  H129  S    
C116  H140  S    
C99   H38   S    
C114  H4    S    
O22   Zn12  S    
C16   C20   S    
C90   H123  S    
C70   H99   S    
C66   C110  S    
C47   H62   S    
C79   H107  S    
C63   O11   A    
C41   H52   S    
C72   H101  S    
C87   C89   S    
C27   C36   S    
O12   Zn9   S    
C107  H19   S    
C108  H20   S    
C105  C106  S    
C91   H124  S    
C3    O4    A    
C103  H10   S    
C3    O30   A    
C48   C70   S    
C10   O38   A    
C15   H79   S    
C53   C58   S    
C57   C61   S    
C31   H46   S    
C96   C109  S    
C59   C63   S    
C60   C64   S    
C53   H73   S    
C114  H138  S    
O38   Zn7   S    
C61   O18   A    
C42   H54   S    
C75   H91   S    
O34   Zn11  S    
C84   C93   S    
C2    C14   S    
O47   Zn10  S    
C86   C95   S    
C101  H8    S    
C26   C35   S    
C30   H30   S    
C116  H6    S    
C49   C71   S    
C2    C77   S    
C3    C95   S    
C100  C117  S    
O49   Zn9   S    
C80   C93   S    
C16   H80   S    
C45   H60   S    
C56   H76   S    
C84   H113  S    
C36   H44   S    
C12   C110  S    
C47   F4    S    
C48   C57   S    
C85   C86   S    
O23   Zn7   S    
C38   H119  S    
C7    C26   S    
C49   H95   S    
O15   Zn6   S    
O12   Zn6   S    
C52   C74   S    
C78   H93   S    
C37   H45   S    
C20   H128  S    
C1    O5    A    
C65   C70   S    
C56   C78   S    
C13   C23   S    
C83   H134  S    
C85   H114  S    
C62   O10   A    
C43   H59   S    
C92   C118  S    
C47   C69   S    
O33   Zn14  S    
C32   H32   S    
C94   C120  S    
O23   Zn10  S    
C8    O36   A    
C29   C38   S    
C107  C108  S    
C76   H88   S    
C77   H40   S    
C7    O43   A    
O34   Zn8   S    
C112  O25   A    
O29   Zn3   S    
O3    Zn7   S    
C63   O20   A    
C87   H121  S    
O30   Zn4   S    
C54   C59   S    
C30   H35   S    
C100  C108  S    
C98   C112  S    
C74   H85   S    
C52   H81   S    
C113  O51   A    
C5    O32   A    
C12   H77   S    
C65   C74   S    
C46   C68   S    
C8    C110  S    
O25   Zn14  S    
C83   C84   S    
C53   H82   S    
C19   C28   S    
C109  O22   A    
C26   C30   S    
C90   H118  S    
C67   C75   S    
C51   H67   S    
C55   O17   A    
C118  O52   A    
C22   H27   S    
C82   C95   S    
C4    C29   S    
C6    O33   A    
C39   H55   S    
C114  C115  S    
O5    Zn12  S    
C68   C76   S    
C15   H64   S    
C102  H9    S    
C81   C94   S    
C19   H127  S    
C44   O16   A    
C28   C37   S    
C14   H78   S    
C17   H125  S    
O12   Zn13  S    
C89   C93   S    
C117  H7    S    
C91   C95   S    
C34   H33   S    
C91   H120  S    
C88   H41   S    
O37   Zn6   S    
C44   C67   S    
C51   C60   S    
C93   C119  S    
C87   C92   S    
C2    C9    S    
C36   H97   S    
C33   C68   S    
O51   Zn11  S    
O21   Zn11  S    
C64   O21   A    
C58   C62   S    
C23   H28   S    
C101  C102  S    
O41   Zn2   S    
C33   O6    A    
O8    Zn15  S    
O40   Zn16  S    
C84   H135  S    
C4    O31   A    
C48   H94   S    
C42   H58   S    
C15   C19   S    
O4    Zn8   S    
C75   H87   S    
O34   Zn15  S    
C35   H86   S    
C36   C77   S    
C115  H5    S    
C73   H102  S    
C97   C111  S    
C71   H69   S    
C98   C103  S    
C4    O40   A    
O13   Zn4   S    
O11   Zn3   S    
C12   C17   S    
C45   C67   S    
O9    Zn16  S    
C69   C73   S    
C71   H100  S    
C43   F1    S    
C97   C102  S    
O26   Zn15  S    
C82   H106  S    
C96   C101  S    
C112  O50   A    
C41   H57   S    
O28   Zn2   S    
C78   H89   S    
C90   C94   S    
O35   Zn15  S    
C40   C45   S    
C100  C113  S    
C25   H29   S    
O23   Zn3   S    
C48   H63   S    
O50   Zn10  S    
O23   Zn14  S    
C9    O46   A    
C113  O26   A    
C119  O2    A    
C29   C34   S    
C19   H23   S    
C98   C107  S    
C56   C60   S    
C119  O28   A    
C17   H21   S    
O14   Zn5   S    
C83   C92   S    
C76   H92   S    
C56   H84   S    
C43   C65   S    
C86   H115  S    
C80   H104  S    
C117  H3    S    
C44   O7    A    
C97   C106  S    
O52   Zn5   S    
C73   H71   S    
C46   F3    S    
O34   Zn4   S    
O39   Zn8   S    
C80   H109  S    
O43   Zn4   S    
C38   C99   S    
C31   H31   S    
C12   H1    S    
C45   F2    S    
C21   C30   S    
C8    O44   A    
C23   C32   S    
C1    O14   A    
C34   H49   S    
C5    O41   A    
C90   C91   S    
C11   O39   A    
C50   H96   S    
C116  C117  S    
C25   H24   S    
C67   C71   S    
C46   H61   S    
C50   H66   S    
O44   Zn1   S    
O1    Zn5   S    
C106  H14   S    
C52   C57   S    
C11   O48   A    
C77   H36   S    
C83   H112  S    
C103  C104  S    
C61   O9    A    
C81   H110  S    
C55   O8    A    
C24   C99   S    
C14   C18   S    
O1    Zn12  S    
C81   C82   S    
O32   Zn13  S    
C10   O47   A    
O1    Zn1   S    
C17   C26   S    
C120  O29   A    
C105  H17   S    
C22   H2    S    
C49   H65   S    
C51   H98   S    
C88   H37   S    
C39   C57   S    
C11   C24   S    
C89   H122  S    
O16   Zn7   S    
O45   Zn1   S    
C35   H43   S    
C41   C46   S    
C86   H137  S    
O19   Zn9   S    
C68   C72   S    
C104  H133  S    
C99   H42   S    
C1    C69   S    
C16   C24   S    
C107  H15   S    
O42   Zn3   S    
C69   C78   S    
C79   H103  S    
C20   C29   S    
O2    Zn6   S    
O27   Zn16  S    
C22   C31   S    
C24   C25   S    
C41   C59   S    
C42   C60   S    
C108  H16   S    
O10   Zn2   S    
C39   C43   S    
C49   C58   S    
C9    O37   A    
C5    C28   S    
C85   C94   S    
C98   C116  S    
C6    C27   S    
C64   O13   A    
C111  O24   A    
O48   Zn11  S    
C21   H26   S    
C79   C92   S    
C16   H75   S    
C115  H139  S    
C105  H12   S    
C54   C76   S    
C13   C15   S    
C89   H117  S    
C66   H34   S    
C33   O15   A    
C87   H116  S    
C23   H13   S    
O20   Zn10  S    
C18   C27   S    
C51   C73   S    
C18   H22   S    
C10   C13   S    
C40   H51   S    
C7    O35   A    
C54   H74   S    
O46   Zn9   S    
C18   H126  S    
C13   C88   S    
C66   H39   S    
C42   C47   S    
C85   H136  S    
O12   Zn2   S    
C118  O27   A    
C14   H53   S    
C79   C80   S    
O7    Zn14  S    
C54   H83   S    
C109  O45   A    
