data_mof_unit_pretest_1947.cif
_audit_creation_date              2012-12-10T20:16:37-0500
_audit_creation_method            fapswitch 2.2
_symmetry_space_group_name_H-M    P1
_symmetry_Int_Tables_number       1
_space_group_crystal_system       triclinic
_cell_length_a                    25.646357
_cell_length_b                    25.692319
_cell_length_c                    25.774606
_cell_angle_alpha                 89.999975
_cell_angle_beta                  90.0
_cell_angle_gamma                 89.990901
_cell_volume                      16983.2584529

loop_
_atom_site_label
_atom_site_type_symbol
_atom_type_description
_atom_site_fract_x
_atom_site_fract_y
_atom_site_fract_z
_atom_type_partial_charge
C1    C     C_1   0.828090 0.671291 0.750056 0.210081
C2    C     C_1   0.171755 0.671430 0.750081 0.207598
C3    C     C_R   0.527801 0.000048 0.445485 -0.007807
C4    C     C_R   0.499959 0.972238 0.054505 -0.008250
C5    C     C_R   0.499958 0.972238 0.945495 -0.008250
C6    C     C_R   0.000020 0.500017 0.054001 -0.010309
C7    C     C_R   0.000021 0.500017 0.945998 -0.010309
C8    C     C_R   0.507441 0.000006 0.609696 0.871948
C9    C     C_R   0.507441 0.000006 0.390304 0.871949
C10   C     C_R   0.000005 0.507432 0.609673 0.866868
C11   C     C_R   0.000005 0.507432 0.390327 0.866869
C12   C     C_R   0.000004 0.500002 0.109822 0.978500
C13   C     C_1   0.328549 0.171774 0.249662 0.195917
C14   C     C_R   0.000004 0.500002 0.890178 0.978500
C15   C     C_R   0.499995 0.992569 0.109672 0.873741
C16   C     C_R   0.499995 0.992569 0.890328 0.873741
C17   C     C_R   0.599008 0.099008 0.750039 0.854623
C18   C     C_R   0.400955 0.901020 0.250010 0.854520
C19   C     C_R   0.900920 0.598939 0.750053 0.894842
C20   C     C_R   0.099060 0.401048 0.249964 0.852123
C21   C     C_R   0.400955 0.901020 0.749990 0.854519
C22   C     C_R   0.599008 0.099008 0.249961 0.854623
C23   C     C_R   0.099060 0.401048 0.750036 0.852122
C24   C     C_1   0.671477 0.828301 0.750090 0.212923
C25   C     C_R   0.900920 0.598939 0.249947 0.894845
C26   C     C_R   0.599019 0.901003 0.249982 0.898554
C27   C     C_R   0.400987 0.099014 0.750044 0.813522
C28   C     C_R   0.900958 0.401014 0.250011 0.845151
C29   C     C_R   0.099069 0.598949 0.750047 0.888547
C30   C     C_R   0.400987 0.099014 0.249956 0.813523
C31   C     C_R   0.599019 0.901003 0.750018 0.898553
C32   C     C_R   0.099069 0.598949 0.249952 0.888548
C33   C     C_R   0.900958 0.401014 0.749989 0.845154
C34   C     C_R   0.769314 0.730628 0.702737 0.324774
C35   C     C_1   0.171755 0.671430 0.249919 0.207598
C36   C     C_R   0.225414 0.264151 0.296358 0.325070
C37   C     C_R   0.270809 0.767875 0.702829 0.315500
C38   C     C_R   0.728990 0.232206 0.297461 0.332359
C39   C     C_R   0.225418 0.264155 0.703641 0.325069
C40   C     C_R   0.769313 0.730628 0.297263 0.324774
C41   C     C_R   0.728990 0.232205 0.702539 0.332359
C42   C     C_R   0.270809 0.767875 0.297171 0.315499
C43   C     C_R   0.767634 0.270973 0.297488 0.315706
C44   C     C_R   0.232139 0.729140 0.702825 0.333323
C45   C     C_R   0.264064 0.225402 0.296329 0.327380
C46   C     C_1   0.828332 0.328443 0.749782 0.199232
C47   C     C_R   0.730671 0.769406 0.702746 0.322809
C48   C     C_R   0.232139 0.729140 0.297175 0.333323
C49   C     C_R   0.767634 0.270972 0.702512 0.315706
C50   C     C_R   0.730670 0.769406 0.297254 0.322810
C51   C     C_R   0.264068 0.225406 0.703669 0.327380
C52   C     C_R   0.275250 0.236591 0.203011 0.320315
C53   C     C_R   0.729925 0.768652 0.797393 0.328122
C54   C     C_R   0.770971 0.267732 0.202963 0.329263
C55   C     C_R   0.229492 0.731796 0.797393 0.316455
C56   C     C_R   0.729926 0.768652 0.202607 0.328121
C57   C     C_1   0.671477 0.828301 0.249910 0.212923
C58   C     C_R   0.275247 0.236588 0.796990 0.320315
C59   C     C_R   0.229493 0.731796 0.202607 0.316456
C60   C     C_R   0.770971 0.267732 0.797037 0.329263
C61   C     C_R   0.268151 0.770546 0.797397 0.331531
C62   C     C_R   0.732333 0.228975 0.202936 0.321320
C63   C     C_R   0.768524 0.729832 0.797384 0.320730
C64   C     C_R   0.236614 0.275373 0.203043 0.328317
C65   C     C_R   0.732333 0.228976 0.797063 0.321319
C66   C     C_R   0.268152 0.770545 0.202603 0.331531
C67   C     C_R   0.236611 0.275369 0.796958 0.328317
C68   C     C_1   0.328549 0.171775 0.750338 0.195914
C69   C     C_R   0.768524 0.729832 0.202616 0.320730
C70   C     C_R   0.788250 0.710922 0.750058 -0.218965
C71   C     C_R   0.211696 0.289074 0.249714 -0.214484
C72   C     C_R   0.288765 0.788566 0.750113 -0.216898
C73   C     C_1   0.171895 0.328724 0.249751 0.199774
C74   C     C_R   0.711375 0.211245 0.250181 -0.218268
C75   C     C_R   0.211697 0.289075 0.750286 -0.214486
C76   C     C_R   0.788250 0.710922 0.249942 -0.218965
C77   C     C_R   0.711375 0.211246 0.749819 -0.218268
C78   C     C_R   0.288765 0.788566 0.249887 -0.216898
C79   C     C_R   0.788605 0.288696 0.250235 -0.210954
C80   C     C_R   0.211505 0.711141 0.750106 -0.218379
C81   C     C_R   0.288925 0.211620 0.249654 -0.209760
C82   C     C_R   0.711063 0.788427 0.750075 -0.223946
C83   C     C_R   0.211505 0.711141 0.249894 -0.218379
C84   C     C_1   0.328429 0.828368 0.750116 0.204234
C85   C     C_R   0.788605 0.288696 0.749765 -0.210953
C86   C     C_R   0.711063 0.788427 0.249925 -0.223946
C87   C     C_R   0.288925 0.211621 0.750346 -0.209763
C88   C     C_1   0.638406 0.861554 0.750085 0.004823
C89   C     C_1   0.361626 0.138515 0.249774 -0.043821
C90   C     C_1   0.138553 0.638306 0.750049 -0.016391
C91   C     C_1   0.861510 0.361601 0.250123 -0.040939
C92   C     C_1   0.361627 0.138515 0.750226 -0.043822
C93   C     C_1   0.638406 0.861554 0.249915 0.004823
C94   C     C_1   0.861510 0.361601 0.749877 -0.040938
C95   C     C_1   0.671670 0.171500 0.250125 0.203558
C96   C     C_1   0.138553 0.638306 0.249950 -0.016391
C97   C     C_1   0.638495 0.138355 0.250037 -0.019625
C98   C     C_1   0.361549 0.861577 0.750086 -0.019389
C99   C     C_1   0.138624 0.361777 0.249843 -0.037390
C100  C     C_1   0.861377 0.638244 0.750062 -0.012638
C101  C     C_1   0.361549 0.861577 0.249914 -0.019389
C102  C     C_1   0.638495 0.138355 0.749963 -0.019626
C103  C     C_1   0.861377 0.638244 0.249938 -0.012637
C104  C     C_1   0.138624 0.361778 0.750157 -0.037389
C105  C     C_R   0.592065 0.941493 0.946281 0.298663
C106  C     C_1   0.171895 0.328724 0.750249 0.199772
C107  C     C_R   0.407657 0.942093 0.053703 0.299335
C108  C     C_R   0.903548 0.520824 0.945765 0.220703
C109  C     C_R   0.096549 0.479442 0.054245 0.220950
C110  C     C_R   0.407656 0.942093 0.946298 0.299333
C111  C     C_R   0.592065 0.941493 0.053719 0.298663
C112  C     C_R   0.096549 0.479442 0.945755 0.220950
C113  C     C_R   0.903548 0.520827 0.054234 0.220705
C114  C     C_R   0.092344 0.557898 0.446298 0.298506
C115  C     C_R   0.907916 0.558463 0.553717 0.297490
C116  C     C_R   0.557924 0.092211 0.446300 0.298840
C117  C     C_1   0.828090 0.671291 0.249944 0.210081
C118  C     C_R   0.558620 0.908111 0.553718 0.297365
C119  C     C_R   0.907916 0.558463 0.446283 0.297490
C120  C     C_R   0.092344 0.557898 0.553702 0.298506
C121  C     C_R   0.558620 0.908111 0.446281 0.297364
C122  C     C_R   0.557924 0.092211 0.553699 0.298839
C123  C     C_R   0.047244 0.539210 0.527670 -0.117047
C124  C     C_R   0.952892 0.539479 0.472326 -0.116217
C125  C     C_R   0.539237 0.047175 0.527672 -0.116881
C126  C     C_R   0.539569 0.952994 0.472323 -0.115741
C127  C     C_R   0.952892 0.539479 0.527674 -0.116217
C128  C     C_1   0.671670 0.171499 0.749875 0.203559
C129  C     C_R   0.047244 0.539210 0.472329 -0.117047
C130  C     C_R   0.539569 0.952994 0.527677 -0.115741
C131  C     C_R   0.539237 0.047175 0.472328 -0.116882
C132  C     C_R   0.547101 0.960505 0.027675 -0.115838
C133  C     C_R   0.452752 0.960792 0.972330 -0.116510
C134  C     C_R   0.952092 0.510503 0.027567 -0.110253
C135  C     C_R   0.047975 0.489624 0.972430 -0.110905
C136  C     C_R   0.452752 0.960792 0.027671 -0.116511
C137  C     C_R   0.547101 0.960505 0.972325 -0.115838
C138  C     C_R   0.047975 0.489624 0.027570 -0.110903
C139  C     C_1   0.328429 0.828368 0.249884 0.204234
C140  C     C_R   0.952092 0.510502 0.972433 -0.110254
C141  C     C_R   0.639430 0.936841 0.972908 0.289208
C142  C     C_R   0.360246 0.937889 0.027091 0.287266
C143  C     C_R   0.860328 0.539755 0.973086 0.323506
C144  C     C_R   0.139878 0.460774 0.026913 0.321481
C145  C     C_R   0.360246 0.937889 0.972909 0.287268
C146  C     C_R   0.639430 0.936841 0.027092 0.289209
C147  C     C_R   0.139878 0.460774 0.973088 0.321483
C148  C     C_R   0.860328 0.539757 0.026912 0.323506
C149  C     C_R   0.139756 0.562089 0.472909 0.286789
C150  C     C_1   0.828332 0.328443 0.250218 0.199232
C151  C     C_R   0.860546 0.563076 0.527092 0.288370
C152  C     C_R   0.562052 0.139545 0.472909 0.286587
C153  C     C_R   0.563269 0.860829 0.527092 0.288485
C154  C     C_R   0.860546 0.563076 0.472908 0.288368
C155  C     C_R   0.139756 0.562089 0.527091 0.286790
C156  C     C_R   0.563269 0.860829 0.472908 0.288487
C157  C     C_R   0.562052 0.139545 0.527090 0.286589
C158  C     C_R   0.000038 0.527762 0.554506 -0.005739
C159  C     C_R   0.000038 0.527762 0.445494 -0.005739
C160  C     C_R   0.527801 0.000048 0.554515 -0.007808
Cl1   Cl    Cl    0.585822 0.903799 0.889214 -0.460530
Cl2   Cl    Cl    0.914134 0.596174 0.610776 -0.465482
Cl3   Cl    Cl    0.595995 0.086264 0.389405 -0.458381
Cl4   Cl    Cl    0.596388 0.914337 0.610785 -0.464503
Cl5   Cl    Cl    0.914134 0.596173 0.389224 -0.465483
Cl6   Cl    Cl    0.086352 0.595851 0.610625 -0.464541
Cl7   Cl    Cl    0.596388 0.914337 0.389215 -0.464503
Cl8   Cl    Cl    0.595995 0.086264 0.610595 -0.458380
Cl9   Cl    Cl    0.706828 0.794189 0.643281 -0.332287
Cl10  Cl    Cl    0.281311 0.194085 0.354968 -0.417367
Cl11  Cl    Cl    0.209514 0.703159 0.643399 -0.336474
Cl12  Cl    Cl    0.413660 0.904139 0.110623 -0.454517
Cl13  Cl    Cl    0.789757 0.297348 0.356904 -0.405544
Cl14  Cl    Cl    0.281319 0.194093 0.645029 -0.417363
Cl15  Cl    Cl    0.706827 0.794188 0.356718 -0.332287
Cl16  Cl    Cl    0.789757 0.297348 0.643096 -0.405545
Cl17  Cl    Cl    0.209513 0.703160 0.356601 -0.336474
Cl18  Cl    Cl    0.702639 0.209874 0.356838 -0.335789
Cl19  Cl    Cl    0.296768 0.790474 0.643401 -0.406559
Cl20  Cl    Cl    0.194144 0.281448 0.355026 -0.420152
Cl21  Cl    Cl    0.794018 0.706727 0.643262 -0.331381
Cl22  Cl    Cl    0.296767 0.790475 0.356600 -0.406560
Cl23  Cl    Cl    0.890655 0.506577 0.879393 -0.539492
Cl24  Cl    Cl    0.702640 0.209874 0.643162 -0.335789
Cl25  Cl    Cl    0.794017 0.706726 0.356737 -0.331380
Cl26  Cl    Cl    0.194152 0.281456 0.644971 -0.420148
Cl27  Cl    Cl    0.219440 0.306826 0.144443 -0.363148
Cl28  Cl    Cl    0.792149 0.704853 0.856851 -0.361300
Cl29  Cl    Cl    0.710189 0.202615 0.143514 -0.412341
Cl30  Cl    Cl    0.290774 0.796528 0.856822 -0.332052
Cl31  Cl    Cl    0.792150 0.704854 0.143149 -0.361298
Cl32  Cl    Cl    0.219433 0.306818 0.855560 -0.363149
Cl33  Cl    Cl    0.290775 0.796527 0.143178 -0.332052
Cl34  Cl    Cl    0.109338 0.493556 0.120666 -0.538238
Cl35  Cl    Cl    0.710188 0.202616 0.856486 -0.412341
Cl36  Cl    Cl    0.203583 0.709133 0.856821 -0.384349
Cl37  Cl    Cl    0.797291 0.290033 0.143571 -0.391486
Cl38  Cl    Cl    0.705199 0.792541 0.856866 -0.330876
Cl39  Cl    Cl    0.306525 0.219297 0.144352 -0.408973
Cl40  Cl    Cl    0.797290 0.290034 0.856429 -0.391484
Cl41  Cl    Cl    0.203584 0.709131 0.143179 -0.384348
Cl42  Cl    Cl    0.306518 0.219289 0.855651 -0.408970
Cl43  Cl    Cl    0.705200 0.792542 0.143134 -0.330876
Cl44  Cl    Cl    0.302402 0.923604 0.938550 -0.312515
Cl45  Cl    Cl    0.413660 0.904139 0.889377 -0.454517
Cl46  Cl    Cl    0.697152 0.922018 0.061443 -0.310469
Cl47  Cl    Cl    0.196551 0.439808 0.939648 -0.295409
Cl48  Cl    Cl    0.803796 0.561069 0.060368 -0.300247
Cl49  Cl    Cl    0.697152 0.922018 0.938557 -0.310469
Cl50  Cl    Cl    0.302402 0.923604 0.061450 -0.312516
Cl51  Cl    Cl    0.803796 0.561065 0.939628 -0.300252
Cl52  Cl    Cl    0.196551 0.439809 0.060353 -0.295407
Cl53  Cl    Cl    0.802811 0.577849 0.438557 -0.295897
Cl54  Cl    Cl    0.197604 0.576353 0.561450 -0.303445
Cl55  Cl    Cl    0.578093 0.803204 0.438558 -0.297049
Cl56  Cl    Cl    0.585822 0.903799 0.110786 -0.460530
Cl57  Cl    Cl    0.576248 0.197310 0.561451 -0.305167
Cl58  Cl    Cl    0.197604 0.576353 0.438549 -0.303446
Cl59  Cl    Cl    0.802811 0.577849 0.561442 -0.295898
Cl60  Cl    Cl    0.576248 0.197310 0.438548 -0.305167
Cl61  Cl    Cl    0.578093 0.803204 0.561442 -0.297050
Cl62  Cl    Cl    0.109338 0.493555 0.879334 -0.538239
Cl63  Cl    Cl    0.890655 0.506584 0.120606 -0.539495
Cl64  Cl    Cl    0.086351 0.595851 0.389375 -0.464541
O1    O     O_3   0.500000 0.000000 0.750000 -0.529825
O2    O     O_R   0.500000 0.957290 0.365830 -0.610681
O3    O     O_R   0.957290 0.500000 0.634170 -0.613357
O4    O     O_R   0.042710 0.500000 0.365830 -0.614004
O5    O     O_R   1.000000 0.457290 0.134170 -0.591538
O6    O     O_R   1.000000 0.542710 0.865830 -0.593244
O7    O     O_R   0.542710 0.000000 0.134170 -0.610911
O8    O     O_R   0.457290 0.000000 0.865830 -0.609069
O9    O     O_R   1.000000 0.542710 0.134170 -0.593240
O10   O     O_R   1.000000 0.457290 0.865830 -0.591534
O11   O     O_R   0.457290 0.000000 0.134170 -0.609069
O12   O     O_3   0.500000 0.000000 0.250000 -0.529825
O13   O     O_R   0.542710 0.000000 0.865830 -0.610911
O14   O     O_R   0.560130 0.102810 0.719600 -0.581128
O15   O     O_R   0.439870 0.897190 0.280400 -0.624910
O16   O     O_R   0.897190 0.560130 0.719600 -0.577018
O17   O     O_R   0.102810 0.439870 0.280400 -0.617020
O18   O     O_R   0.439870 0.897190 0.719600 -0.624909
O19   O     O_R   0.560130 0.102810 0.280400 -0.581128
O20   O     O_R   0.102810 0.439870 0.719600 -0.617020
O21   O     O_R   0.897190 0.560130 0.280400 -0.577019
O22   O     O_R   0.560130 0.897190 0.280400 -0.586506
O23   O     O_3   1.000000 0.500000 0.750000 -0.526572
O24   O     O_R   0.439870 0.102810 0.719600 -0.620339
O25   O     O_R   0.897190 0.439870 0.280400 -0.615233
O26   O     O_R   0.102810 0.560130 0.719600 -0.576575
O27   O     O_R   0.439870 0.102810 0.280400 -0.620340
O28   O     O_R   0.560130 0.897190 0.719600 -0.586506
O29   O     O_R   0.102810 0.560130 0.280400 -0.576575
O30   O     O_R   0.897190 0.439870 0.719600 -0.615233
O31   O     O_R   0.060130 0.602810 0.219600 -0.620409
O32   O     O_R   0.939870 0.397190 0.780400 -0.615196
O33   O     O_R   0.397190 0.060130 0.219600 -0.622464
O34   O     O_3   1.000000 0.500000 0.250000 -0.526572
O35   O     O_R   0.602810 0.939870 0.780400 -0.588658
O36   O     O_R   0.939870 0.397190 0.219600 -0.615197
O37   O     O_R   0.060130 0.602810 0.780400 -0.620409
O38   O     O_R   0.602810 0.939870 0.219600 -0.588658
O39   O     O_R   0.397190 0.060130 0.780400 -0.622464
O40   O     O_R   0.060130 0.397190 0.780400 -0.614296
O41   O     O_R   0.939870 0.602810 0.219600 -0.618566
O42   O     O_R   0.397190 0.939870 0.780400 -0.583128
O43   O     O_R   0.602810 0.060130 0.219600 -0.626955
O44   O     O_R   0.939870 0.602810 0.780400 -0.618568
O45   O     O_R   0.500000 0.957290 0.634170 -0.610680
O46   O     O_R   0.060130 0.397190 0.219600 -0.614297
O47   O     O_R   0.602810 0.060130 0.780400 -0.626955
O48   O     O_R   0.397190 0.939870 0.219600 -0.583128
O49   O     O_R   0.500000 0.042710 0.365830 -0.608946
O50   O     O_R   0.042710 0.500000 0.634170 -0.614004
O51   O     O_R   0.957290 0.500000 0.365830 -0.613357
O52   O     O_R   0.500000 0.042710 0.634170 -0.608946
Zn1   Zn    Zn3+2 0.561040 0.000000 0.793350 1.095808
Zn2   Zn    Zn3+2 0.938960 0.500000 0.706650 1.103523
Zn3   Zn    Zn3+2 0.500000 0.061040 0.293350 1.078469
Zn4   Zn    Zn3+2 0.500000 0.938960 0.706650 1.097378
Zn5   Zn    Zn3+2 0.938960 0.500000 0.293350 1.103522
Zn6   Zn    Zn3+2 0.061040 0.500000 0.706650 1.102238
Zn7   Zn    Zn3+2 0.500000 0.938960 0.293350 1.097378
Zn8   Zn    Zn3+2 0.500000 0.061040 0.706650 1.078469
Zn9   Zn    Zn3+2 0.438960 0.000000 0.206650 1.077081
Zn10  Zn    Zn3+2 1.000000 0.561040 0.793350 1.121911
Zn11  Zn    Zn3+2 1.000000 0.438960 0.206650 1.101840
Zn12  Zn    Zn3+2 0.438960 0.000000 0.793350 1.077081
Zn13  Zn    Zn3+2 0.561040 0.000000 0.206650 1.095808
Zn14  Zn    Zn3+2 1.000000 0.438960 0.793350 1.101842
Zn15  Zn    Zn3+2 1.000000 0.561040 0.206650 1.121914
Zn16  Zn    Zn3+2 0.061040 0.500000 0.293350 1.102238

loop_
_geom_bond_atom_site_label_1
_geom_bond_atom_site_label_2
_ccdc_geom_bond_type
O34   Zn15  S    
O12   Zn3   S    
O50   Zn6   S    
O18   Zn4   S    
C45   Cl10  S    
C69   Cl31  S    
C120  Cl6   S    
C118  Cl4   S    
C3    C131  A    
C59   C66   A    
C30   O33   A    
C118  C153  A    
C2    C90   T    
C28   O25   A    
C11   O4    A    
C32   O29   A    
C9    O2    A    
C31   C88   S    
C110  C145  A    
C36   C71   A    
C26   C93   S    
C103  C117  T    
O12   Zn7   S    
C154  Cl53  S    
C41   C49   A    
C22   O19   A    
C20   O17   A    
C65   C77   A    
C11   C159  S    
O19   Zn3   S    
C71   C73   S    
C132  C137  A    
C120  C155  A    
C40   C76   A    
O45   Zn4   S    
C53   C82   A    
O13   Zn1   S    
C107  C136  A    
C145  Cl44  S    
C56   C86   A    
C19   C100  S    
O22   Zn7   S    
C153  C156  A    
C72   C84   S    
C124  C127  A    
C60   C65   A    
C151  Cl59  S    
C141  Cl49  S    
O24   Zn8   S    
C54   C79   A    
C152  C157  A    
C45   C81   A    
C95   C97   T    
C5    C137  A    
C1    C70   S    
O23   Zn2   S    
C149  C155  A    
C38   C43   A    
C55   C80   A    
C43   Cl13  S    
C20   C99   S    
C37   C44   A    
O23   Zn14  S    
C68   C92   T    
O1    Zn4   S    
O34   Zn5   S    
C105  C141  A    
C14   O6    A    
C60   Cl40  S    
C58   C67   A    
O47   Zn1   S    
C58   Cl42  S    
C115  C151  A    
O41   Zn15  S    
C50   Cl15  S    
O12   Zn9   S    
C26   O22   A    
C39   C51   A    
C121  C156  A    
C155  Cl54  S    
C17   O47   A    
C78   C139  S    
C18   O48   A    
C101  C139  T    
C125  C160  A    
C12   O5    A    
C4    C132  A    
C35   C96   T    
C5    C133  A    
C113  C148  A    
C9    O49   A    
O23   Zn6   S    
C102  C128  T    
C30   O27   A    
C32   O31   A    
C69   C76   A    
O1    Zn8   S    
C113  Cl63  S    
O31   Zn15  S    
C41   Cl24  S    
C39   C75   A    
C109  C144  A    
O12   Zn13  S    
C10   C158  S    
C55   Cl36  S    
C144  C147  A    
C47   Cl9   S    
C12   O9    A    
C109  Cl34  S    
C111  C146  A    
C67   Cl32  S    
O52   Zn8   S    
C116  C152  A    
O48   Zn9   S    
C109  C138  A    
C51   Cl14  S    
C17   C102  S    
C3    C9    S    
C125  C131  A    
C46   C94   T    
C42   C48   A    
C21   O42   A    
O21   Zn5   S    
C10   O3    A    
O16   Zn2   S    
O35   Zn1   S    
C67   C75   A    
C38   C74   A    
O34   Zn16  S    
C15   O7    A    
C48   C83   A    
C122  C125  A    
C53   C63   A    
C55   C61   A    
C28   C91   S    
C105  Cl1   S    
C49   Cl16  S    
C52   C81   A    
O51   Zn5   S    
O3    Zn2   S    
O27   Zn3   S    
C105  C137  A    
O42   Zn12  S    
C56   C69   A    
C68   C87   S    
O1    Zn1   S    
C114  Cl64  S    
C116  Cl3   S    
C36   Cl20  S    
C129  C159  A    
O46   Zn11  S    
C104  C106  T    
O8    Zn12  S    
C3    C126  A    
C56   Cl43  S    
C42   Cl22  S    
C54   Cl37  S    
O25   Zn5   S    
C112  C147  A    
C36   C45   A    
C33   O30   A    
C59   C83   A    
C30   C89   S    
C6    C12   S    
C7    C140  A    
C126  C130  A    
C13   C81   S    
C34   Cl21  S    
C130  C160  A    
C64   C71   A    
O34   Zn11  S    
O2    Zn7   S    
C39   Cl26  S    
C22   O43   A    
C28   O36   A    
O9    Zn15  S    
C34   C70   A    
C120  C123  A    
C4    C136  A    
C46   C85   S    
O44   Zn10  S    
C17   O14   A    
C33   C94   S    
C142  C145  A    
C10   O50   A    
O23   Zn10  S    
C121  Cl7   S    
C1    C100  T    
C29   C90   S    
C62   Cl29  S    
C107  Cl12  S    
C37   Cl19  S    
C122  Cl8   S    
O1    Zn12  S    
C44   C80   A    
C111  Cl56  S    
C52   C64   A    
C35   C83   S    
C54   C62   A    
C153  Cl61  S    
C118  C130  A    
C23   C104  S    
C27   O39   A    
C156  Cl55  S    
C157  Cl57  S    
C24   C88   T    
C127  C158  A    
C141  C146  A    
C79   C150  S    
C61   C72   A    
C119  C154  A    
C113  C134  A    
C61   Cl30  S    
C114  C129  A    
C8    O52   A    
O29   Zn16  S    
C8    C160  S    
C20   O46   A    
C144  Cl52  S    
C66   Cl33  S    
O37   Zn10  S    
O39   Zn12  S    
C108  Cl23  S    
C33   O32   A    
C91   C150  T    
C60   C85   A    
O38   Zn13  S    
C76   C117  S    
O28   Zn4   S    
C44   Cl11  S    
C27   O24   A    
C41   C77   A    
C21   C98   S    
O30   Zn2   S    
C23   O40   A    
C115  Cl2   S    
C40   C50   A    
C122  C157  A    
C31   O28   A    
C149  Cl58  S    
O10   Zn14  S    
O7    Zn13  S    
C148  Cl48  S    
C75   C106  S    
C37   C72   A    
C15   O11   A    
C62   C74   A    
C31   O35   A    
C34   C47   A    
C114  C149  A    
C23   O20   A    
C108  C143  A    
C21   O18   A    
C65   Cl35  S    
C25   O21   A    
C135  C138  A    
C38   Cl18  S    
C146  Cl46  S    
C58   C87   A    
O32   Zn14  S    
C119  C124  A    
O49   Zn3   S    
C53   Cl38  S    
C134  C140  A    
C47   C82   A    
C43   C79   A    
C124  C159  A    
C115  C127  A    
C57   C86   S    
C151  C154  A    
C24   C82   S    
C5    C16   S    
C7    C14   S    
C133  C136  A    
C29   O37   A    
C110  Cl45  S    
C22   C97   S    
C57   C93   T    
C123  C129  A    
O26   Zn6   S    
O33   Zn9   S    
C48   Cl17  S    
O36   Zn11  S    
C49   C85   A    
O43   Zn13  S    
C2    C80   S    
C51   C87   A    
C108  C140  A    
C25   C103  S    
C143  Cl51  S    
C40   Cl25  S    
O15   Zn7   S    
C16   O8    A    
C18   C101  S    
C6    C138  A    
C7    C135  A    
C8    O45   A    
C59   Cl41  S    
C63   C70   A    
O6    Zn10  S    
C27   C92   S    
O4    Zn16  S    
C52   Cl39  S    
O40   Zn14  S    
C107  C142  A    
C147  Cl47  S    
C11   O51   A    
C77   C128  S    
C66   C78   A    
C32   C96   S    
C16   O13   A    
C42   C78   A    
C142  Cl50  S    
C112  C135  A    
C14   O10   A    
C18   O15   A    
C73   C99   T    
C119  Cl5   S    
C13   C89   T    
C112  Cl62  S    
C74   C95   S    
C25   O41   A    
C26   O38   A    
C123  C158  A    
O20   Zn6   S    
C84   C98   T    
C29   O26   A    
C4    C15   S    
C121  C126  A    
C6    C134  A    
C19   O16   A    
O17   Zn16  S    
C116  C131  A    
C152  Cl60  S    
O11   Zn9   S    
C143  C148  A    
C64   Cl27  S    
O14   Zn8   S    
C50   C86   A    
C111  C132  A    
O5    Zn11  S    
C63   Cl28  S    
C110  C133  A    
C19   O44   A    
