data_mof_unit_pretest_90.cif
_audit_creation_date              2013-03-05T15:40:46-0500
_audit_creation_method            fapswitch 2.2
_symmetry_space_group_name_H-M    P1
_symmetry_Int_Tables_number       1
_space_group_crystal_system       triclinic
_cell_length_a                    6.918947
_cell_length_b                    17.258732
_cell_length_c                    24.072976
_cell_angle_alpha                 104.574201
_cell_angle_beta                  90.379578
_cell_angle_gamma                 89.962781
_cell_volume                      2782.04819063

loop_
_atom_site_label
_atom_site_type_symbol
_atom_site_description
_atom_site_fract_x
_atom_site_fract_y
_atom_site_fract_z
_atom_type_partial_charge
O1    O     O_R   0.494290 0.391990 0.999150 -0.560013
O2    O     O_R   0.827170 0.534410 0.082350 -0.553676
O3    O     O_R   0.994360 0.608010 0.000850 -0.562960
C1    C     C_R   0.658538 0.548746 0.106050 0.830192
O4    O     O_R   0.824210 0.388010 0.004470 -0.556742
O5    O     O_R   0.991370 0.460560 0.922410 -0.563653
C2    C     C_R   0.654586 0.354849 0.001464 0.848464
O6    O     O_R   0.497270 0.539440 0.077590 -0.553560
O7    O     O_3   0.659770 0.523970 0.973170 -0.283923
V1    V     V_3+5 0.935840 0.495550 0.004980 1.133783
O8    O     O_R   0.320910 0.465590 0.917650 -0.564676
C3    C     C_R   0.150681 0.453931 0.893742 0.823253
O9    O     O_R   0.323870 0.611990 0.995530 -0.560795
C4    C     C_R   0.154406 0.645129 0.998478 0.855469
V2    V     V_3+5 0.435470 0.504450 0.995020 1.126874
O10   O     O_3   0.161670 0.476030 0.026830 -0.264870
C5    C     C_2   0.142843 0.730259 0.997955 -0.239640
H1    H     H_    0.277311 0.761094 0.994397 0.103636
C6    C     C_2   0.972702 0.769733 0.002030 -0.234786
H2    H     H_    0.838242 0.738890 0.005585 0.096658
C7    C     C_R   0.022063 0.272699 0.626035 0.537444
N1    N     N_R   0.112388 0.344753 0.647280 -0.456596
C8    C     C_R   0.188992 0.386676 0.611264 0.571220
C9    C     C_R   0.174332 0.356594 0.551163 -0.054930
C10   C     C_R   0.080967 0.283005 0.528609 -0.042711
C11   C     C_R   0.004154 0.240496 0.566433 -0.019328
C12   C     C_R   0.249505 0.398850 0.513508 -0.024566
C13   C     C_R   0.234500 0.369237 0.453572 0.028451
C14   C     C_R   0.141069 0.294089 0.430030 -0.036803
C15   C     C_R   0.063792 0.251749 0.468334 -0.054777
C16   C     C_R   0.968472 0.177840 0.446672 -0.028405
C17   C     C_R   0.892316 0.136326 0.484872 -0.078451
C18   C     C_R   0.910160 0.167192 0.543981 -0.079228
C19   C     C_R   0.121005 0.258872 0.369994 0.636104
N2    N     N_R   0.028117 0.186890 0.350261 -0.422934
C20   C     C_R   0.951491 0.146685 0.387159 0.598769
O11   O     O_2   0.948362 0.232659 0.662526 -0.568096
O12   O     O_2   0.277738 0.457380 0.633500 -0.478626
H3    H     H_    0.320629 0.455802 0.530950 0.158875
O13   O     O_2   0.193598 0.295259 0.331317 -0.504877
O14   O     O_2   0.859311 0.076412 0.366100 -0.558163
H4    H     H_    0.818711 0.079565 0.469216 0.121760
H5    H     H_    0.849655 0.133382 0.572014 0.120930
C21   C     C_R   0.144088 0.092698 0.260979 -0.031428
C22   C     C_R   0.123861 0.057834 0.201385 0.296729
C23   C     C_R   0.976852 0.084386 0.169327 -0.284769
C24   C     C_R   0.847682 0.145075 0.197605 0.218204
C25   C     C_R   0.863757 0.177943 0.257453 0.311282
C26   C     C_R   0.011608 0.151926 0.289124 0.145296
C27   C     C_R   0.973840 0.428253 0.738014 0.072420
C28   C     C_R   0.983270 0.456317 0.799024 0.007335
C29   C     C_R   0.137645 0.430638 0.829780 -0.099618
C30   C     C_R   0.284267 0.382423 0.799007 -0.147807
H6    H     H_    0.404439 0.363255 0.821369 0.088088
C31   C     C_R   0.276093 0.356320 0.739391 -0.035384
H7    H     H_    0.389297 0.317811 0.716851 0.081580
C32   C     C_R   0.121561 0.377621 0.708621 0.288843
C33   C     C_R   0.356313 0.816250 0.615750 0.622464
N3    N     N_R   0.501054 0.801116 0.650653 -0.439514
C34   C     C_R   0.654008 0.752925 0.628903 0.635144
C35   C     C_R   0.665628 0.715886 0.569347 -0.116265
C36   C     C_R   0.523919 0.735472 0.532175 -0.077021
C37   C     C_R   0.364583 0.785104 0.555151 0.009795
C38   C     C_R   0.818607 0.662931 0.545244 0.336771
C39   C     C_R   0.838481 0.637468 0.485529 -0.121612
C40   C     C_R   0.703455 0.658742 0.448459 -0.091660
C41   C     C_R   0.543153 0.705923 0.471706 -0.045932
C42   C     C_R   0.403279 0.724035 0.434251 -0.032184
C43   C     C_R   0.243153 0.770516 0.457079 -0.054487
C44   C     C_R   0.221808 0.801859 0.516498 0.047443
C45   C     C_R   0.723508 0.632496 0.388284 0.581737
N4    N     N_R   0.586874 0.651561 0.352483 -0.447999
C46   C     C_R   0.427478 0.695693 0.374313 0.570574
O15   O     O_2   0.206976 0.862200 0.640191 -0.556746
O16   O     O_2   0.797478 0.743643 0.664816 -0.448408
H8    H     H_    0.958008 0.598451 0.468138 0.151072
O17   O     O_2   0.878265 0.588266 0.365809 -0.537466
O18   O     O_2   0.293314 0.712633 0.338174 -0.547152
H9    H     H_    0.134429 0.783779 0.428195 0.125219
C47   C     C_R   0.716698 0.670383 0.261467 0.006794
H10   H     H_    0.782265 0.725834 0.285503 0.096765
C48   C     C_R   0.735134 0.646550 0.201336 -0.018049
C49   C     C_R   0.647766 0.573982 0.169856 -0.071495
C50   C     C_R   0.544420 0.526628 0.200388 -0.030308
C51   C     C_R   0.525275 0.553199 0.260314 0.014067
H11   H     H_    0.444707 0.517648 0.283490 0.104898
C52   C     C_R   0.610493 0.624685 0.290998 0.245468
C53   C     C_R   0.426630 0.794305 0.749635 0.376278
C54   C     C_R   0.412387 0.830055 0.809206 -0.088404
C55   C     C_R   0.465266 0.911612 0.831354 -0.108579
C56   C     C_R   0.535483 0.956248 0.793483 0.004263
C57   C     C_R   0.552055 0.919229 0.733783 0.050553
C58   C     C_R   0.493600 0.838630 0.711854 0.190654
C59   C     C_2   0.642978 0.269651 0.001863 -0.214664
H12   H     H_    0.777682 0.238623 0.005075 0.119974
C60   C     C_2   0.472502 0.230336 0.998075 -0.234201
H13   H     H_    0.337799 0.261369 0.994874 0.095998
O19   O     O_R   0.618210 0.960470 0.922400 -0.568932
O20   O     O_R   0.291310 0.111960 0.995450 -0.571199
O21   O     O_R   0.124210 0.039530 0.077580 -0.517043
C61   C     C_R   0.460924 0.145125 0.998454 0.900033
O22   O     O_R   0.288310 0.965490 0.917650 -0.570520
O23   O     O_R   0.121180 0.892010 0.999220 -0.555177
C62   C     C_R   0.456534 0.948290 0.894276 0.824312
O24   O     O_R   0.621230 0.107990 0.000760 -0.544092
O25   O     O_3   0.455770 0.976060 0.026840 -0.233783
V3    V     V_3+5 0.179680 0.004440 0.995020 1.197377
O26   O     O_R   0.791670 0.888040 0.004570 -0.570155
C63   C     C_R   0.961127 0.854881 0.001554 0.880456
O27   O     O_R   0.794680 0.034510 0.082370 -0.511398
C64   C     C_R   0.964067 0.050934 0.105957 0.971492
V4    V     V_3+5 0.680070 0.995560 0.005010 1.225496
O28   O     O_3   0.953840 0.023940 0.973160 -0.297119
N5    N     N_R   0.734920 0.240621 0.285890 0.124562
O29   O     O_R   0.646756 0.236310 0.332589 -0.374365
O30   O     O_R   0.709534 0.303470 0.266095 -0.297438
C65   C     C_3   0.805741 0.450869 0.704601 -0.260914
H14   H     H_    0.809171 0.516156 0.707870 0.196880
H15   H     H_    0.807417 0.420035 0.658311 0.123219
H16   H     H_    0.667319 0.434759 0.721940 0.108420
C66   C     C_3   0.832524 0.514094 0.831301 -0.334760
H17   H     H_    0.903888 0.563737 0.863266 0.110616
H18   H     H_    0.744876 0.543039 0.803617 0.134039
H19   H     H_    0.731676 0.481815 0.853295 0.143709
N6    N     N_R   0.949737 0.630632 0.580069 0.138532
O31   O     O_R   0.881382 0.591336 0.615208 -0.278044
O32   O     O_R   0.132093 0.623247 0.566873 -0.345428
C67   C     C_3   0.046920 0.853930 0.536000 -0.339944
H20   H     H_    0.093454 0.915614 0.558034 0.148958
H21   H     H_    0.952044 0.858530 0.499554 0.082647
H22   H     H_    0.957603 0.828319 0.565028 0.151358
C68   C     C_3   0.843795 0.701987 0.173074 -0.346429
H23   H     H_    0.838247 0.683484 0.125595 0.115285
H24   H     H_    0.780553 0.762983 0.186426 0.142528
H25   H     H_    0.997660 0.705073 0.186886 0.148146
C69   C     C_3   0.455255 0.446694 0.171493 -0.300754
H26   H     H_    0.496520 0.424513 0.125890 0.110432
H27   H     H_    0.503878 0.400914 0.193741 0.184008
H28   H     H_    0.295336 0.451366 0.174090 0.135245
N7    N     N_R   0.371811 0.712175 0.726974 0.098686
O33   O     O_R   0.232910 0.693825 0.689318 -0.235035
O34   O     O_R   0.469258 0.655280 0.740876 -0.343007
C70   C     C_3   0.339418 0.779407 0.847891 -0.334234
H29   H     H_    0.323238 0.812566 0.893341 0.093106
H30   H     H_    0.195536 0.754054 0.832534 0.147292
H31   H     H_    0.441966 0.729728 0.847200 0.147271
C71   C     C_3   0.591899 0.043663 0.815769 -0.362022
H32   H     H_    0.562858 0.068476 0.862011 0.088080
H33   H     H_    0.748701 0.051032 0.809100 0.127034
H34   H     H_    0.508457 0.080853 0.792605 0.117968
C72   C     C_3   0.633951 0.966017 0.693790 -0.311859
H35   H     H_    0.650405 0.929772 0.649043 0.098185
H36   H     H_    0.537645 0.017093 0.692780 0.121114
H37   H     H_    0.780053 0.988868 0.708777 0.135586
C73   C     C_3   0.318982 0.420228 0.417062 -0.280388
H38   H     H_    0.204181 0.437198 0.389921 0.174111
H39   H     H_    0.382487 0.476839 0.443421 0.090824
H40   H     H_    0.436855 0.387334 0.389995 0.197577
C74   C     C_3   0.306439 0.065367 0.293978 -0.175730
H41   H     H_    0.304852 0.094339 0.340572 0.094188
H42   H     H_    0.296477 0.999709 0.288737 0.130521
H43   H     H_    0.447794 0.080051 0.277618 0.178561
N8    N     N_R   0.246859 0.992401 0.173880 0.097460
O35   O     O_R   0.433059 0.002151 0.172651 -0.334838
O36   O     O_R   0.171658 0.923642 0.147881 -0.384403
N9    N     N_R   0.702040 0.174797 0.165516 0.127311
O37   O     O_R   0.751403 0.205622 0.123603 -0.381443
O38   O     O_R   0.521748 0.176851 0.180862 -0.300826

loop_
_geom_bond_atom_site_label_1
_geom_bond_atom_site_label_2
_geom_bond_distance
_ccdc_geom_bond_type
C21   C26   1.415134 A    
C70   H31   1.109513 S    
C31   H7    1.083086 S    
C47   H10   1.083921 S    
C73   H39   1.111380 S    
C27   C65   1.515608 S    
N2    C20   1.366896 A    
C9    C12   1.401245 A    
C1    O6    1.294186 A    
C67   H20   1.110118 S    
N1    C32   1.443455 S    
C56   C71   1.518855 S    
N5    O29   1.301022 A    
O25   V4    1.702461 S    
C51   H11   1.084116 S    
C21   C22   1.415185 A    
C36   C37   1.422479 A    
C39   H8    1.083806 S    
C36   C41   1.423242 A    
C19   O13   1.346980 S    
C7    N1    1.369398 A    
C13   C14   1.430912 A    
N8    O36   1.301298 A    
N7    O34   1.300899 A    
C47   C52   1.398998 A    
C65   H15   1.107622 S    
C74   H41   1.107308 S    
O5    C3    1.294028 A    
C15   C16   1.412714 A    
O22   C62   1.297550 A    
O19   C62   1.293266 A    
O25   V3    2.154983 S    
C70   H29   1.106150 S    
C10   C15   1.419296 A    
O26   C63   1.298771 A    
C19   N2    1.371875 A    
C72   H37   1.109799 S    
O27   C64   1.298807 A    
C53   N7    1.435074 S    
C66   H19   1.109688 S    
C71   H32   1.107201 S    
C53   C58   1.408308 A    
O8    V2    1.974726 S    
V3    O28   1.705690 S    
C24   C25   1.412971 A    
C12   H3    1.083868 S    
C68   H23   1.107058 S    
N2    C26   1.447120 S    
C13   C73   1.511728 S    
C72   H35   1.107726 S    
C74   H42   1.110309 S    
O1    V2    2.009534 S    
O9    C4    1.298743 A    
O7    V1    2.154982 S    
C35   C36   1.420038 A    
C30   C31   1.392603 A    
C40   C41   1.408584 A    
N3    C34   1.368534 A    
C23   C64   1.491097 S    
C73   H40   1.110069 S    
N9    O38   1.301256 A    
C4    C5    1.474575 S    
C20   O14   1.349818 S    
C59   H12   1.086561 S    
C69   H28   1.110385 S    
N1    C8    1.370559 A    
V4    O28   2.150631 S    
C3    C29   1.492419 S    
C7    C11   1.406901 A    
C5    H1    1.086639 S    
C6    C63   1.474586 S    
C61   O24   1.288499 A    
O19   V4    1.971725 S    
C51   C52   1.397120 A    
C41   C42   1.406128 A    
C18   H5    1.083225 S    
C71   H34   1.109788 S    
C9    C10   1.405166 A    
C47   C48   1.408384 A    
C65   H16   1.110333 S    
C56   C57   1.423635 A    
O4    C2    1.299640 A    
C24   N9    1.436580 S    
C42   C43   1.399280 A    
C42   C46   1.413205 A    
C30   H6    1.083476 S    
C46   O18   1.349425 S    
C14   C19   1.425775 A    
C48   C49   1.423224 A    
C28   C29   1.428122 A    
C34   C35   1.418025 A    
C35   C38   1.425583 A    
O2    C1    1.298241 A    
C40   C45   1.412496 A    
C14   C15   1.419933 A    
C11   C18   1.402825 A    
C49   C50   1.424591 A    
C37   C44   1.431136 A    
C8    C9    1.411803 A    
C60   H13   1.086556 S    
C57   C72   1.516275 S    
C27   C28   1.427108 A    
C74   H43   1.109745 S    
O22   V3    1.968141 S    
C10   C11   1.411690 A    
C50   C51   1.406585 A    
C59   C60   1.352199 D    
C55   C62   1.489079 S    
C66   H17   1.110730 S    
O3    C4    1.288427 A    
C69   H27   1.111087 S    
C25   C26   1.410924 A    
O20   C61   1.299613 A    
O24   V4    2.009898 S    
C39   C40   1.399059 A    
O6    V2    1.970653 S    
C31   C32   1.397519 A    
N9    O37   1.300997 A    
C28   C66   1.518344 S    
C43   H9    1.083839 S    
C48   C68   1.509577 S    
O2    V1    1.968088 S    
C67   H22   1.107748 S    
C45   O17   1.349342 S    
N4    C52   1.445772 S    
C29   C30   1.403211 A    
C33   O15   1.347172 S    
C25   N5    1.437898 S    
C44   C67   1.511961 S    
C33   C37   1.423643 A    
C70   H30   1.110610 S    
C2    C59   1.475103 S    
C23   C24   1.416761 A    
C50   C69   1.510007 S    
O21   V3    1.966757 S    
C71   H33   1.109832 S    
O1    C2    1.288512 A    
C27   C32   1.416389 A    
C16   C17   1.405404 A    
N4    C46   1.370296 A    
C67   H21   1.111008 S    
O5    V1    1.966975 S    
C22   C23   1.416723 A    
N5    O30   1.301247 A    
O8    C3    1.300765 A    
C8    O12   1.349258 S    
O20   V3    2.008035 S    
C34   O16   1.347788 S    
O23   C63   1.288400 A    
O23   V3    2.009850 S    
C17   C18   1.392851 A    
C6    H2    1.086648 S    
O9    V2    2.006966 S    
C33   N3    1.369696 A    
O4    V1    2.007913 S    
O3    V1    2.009891 S    
C54   C70   1.517462 S    
C65   H14   1.109853 S    
C38   C39   1.401114 A    
C55   C56   1.421409 A    
N6    O31   1.301384 A    
C1    C49   1.489754 S    
C68   H25   1.110501 S    
N7    O33   1.300011 A    
C57   C58   1.416184 A    
C5    C6    1.351446 D    
C72   H36   1.109708 S    
C22   N8    1.438010 S    
C43   C44   1.404900 A    
O27   V4    1.974819 S    
C66   H18   1.105991 S    
N8    O35   1.300856 A    
O26   V4    2.007028 S    
C45   N4    1.369778 A    
C7    O11   1.349497 S    
C53   C54   1.415403 A    
O21   C64   1.294289 A    
C68   H24   1.110835 S    
C38   N6    1.435683 S    
C73   H38   1.110269 S    
N6    O32   1.301461 A    
C21   C74   1.513749 S    
C17   H4    1.083215 S    
C16   C20   1.401996 A    
C69   H26   1.107121 S    
V1    O10   1.705636 S    
N3    C58   1.453739 S    
C54   C55   1.421192 A    
C60   C61   1.475180 S    
V2    O10   2.150631 S    
O7    V2    1.702732 S    
C12   C13   1.407397 A    
