data_mof_unit_pretest_700.cif
_audit_creation_date              2012-12-11T14:29:48-0500
_audit_creation_method            fapswitch 2.2
_symmetry_space_group_name_H-M    P1
_symmetry_Int_Tables_number       1
_space_group_crystal_system       triclinic
_cell_length_a                    6.934039
_cell_length_b                    14.866935
_cell_length_c                    16.242302
_cell_angle_alpha                 90.500934
_cell_angle_beta                  90.222954
_cell_angle_gamma                 90.598307
_cell_volume                      1674.21635923

loop_
_atom_site_label
_atom_site_type_symbol
_atom_type_description
_atom_site_fract_x
_atom_site_fract_y
_atom_site_fract_z
_atom_type_partial_charge
O1    O     O_R   0.494400 0.416610 0.413880 -0.554038
O2    O     O_R   0.823920 0.406790 0.585520 -0.553028
O3    O     O_R   0.994250 0.583390 0.586120 -0.545483
C1    C     C_R   0.654344 0.383839 0.612876 0.641821
O4    O     O_R   0.824110 0.405730 0.414490 -0.518361
O5    O     O_R   0.994440 0.582310 0.413870 -0.542990
C2    C     C_R   0.654692 0.385330 0.385098 0.694245
O6    O     O_R   0.494210 0.417690 0.586130 -0.538479
O7    O     O_3   0.660810 0.557940 0.500000 -0.369851
V1    V     V_3+5 0.935650 0.489250 0.500000 1.474765
O8    O     O_R   0.324160 0.593210 0.414480 -0.539474
C3    C     C_R   0.156012 0.613003 0.385015 0.771194
O9    O     O_R   0.323970 0.594270 0.585510 -0.513319
C4    C     C_R   0.156173 0.617985 0.612753 0.890320
V2    V     V_3+5 0.435660 0.510750 0.500000 1.482253
O10   O     O_3   0.160630 0.442060 0.500000 -0.370515
H1    H     H_    0.171651 0.928693 0.504690 0.126043
C5    C     C_R   0.171855 0.562613 0.786311 0.137838
C6    C     C_R   0.151993 0.532466 0.867236 0.365770
C7    C     C_R   0.111909 0.593587 0.929437 -0.277878
C8    C     C_R   0.098261 0.685131 0.913484 0.140624
C9    C     C_R   0.118789 0.718893 0.831476 0.021060
C10   C     C_R   0.146196 0.655291 0.765759 -0.055338
C11   C     C_R   0.110212 0.812987 0.813666 -0.119984
C12   C     C_R   0.109589 0.842594 0.729931 -0.050863
C13   C     C_R   0.146036 0.779434 0.664740 -0.017154
C14   C     C_R   0.152576 0.685344 0.682160 -0.126228
C15   C     C_R   0.069788 0.934053 0.708644 0.146252
C16   C     C_R   0.093051 0.963891 0.627539 0.195293
C17   C     C_R   0.150548 0.904127 0.566650 -0.257957
C18   C     C_R   0.175367 0.812774 0.583237 0.305703
H2    H     H_    0.094731 0.570296 0.992075 0.130445
C19   C     C_2   0.989034 0.711140 0.284785 -0.182973
C20   C     C_2   0.152484 0.674570 0.313937 -0.307011
H3    H     H_    0.853134 0.693892 0.314053 0.134936
H4    H     H_    0.288578 0.686420 0.283000 0.175555
C21   C     C_2   0.979017 0.768455 0.208986 0.324093
C22   C     C_2   0.120781 0.828429 0.188988 0.141032
C23   C     C_2   0.771054 0.217017 0.788649 0.396447
C24   C     C_2   0.620274 0.160572 0.803563 0.183039
C25   C     C_2   0.785824 0.267373 0.709538 0.111796
C26   C     C_2   0.639997 0.321397 0.684542 0.164632
C27   C     C_2   0.778515 0.208200 0.217766 0.152909
C28   C     C_2   0.615920 0.170785 0.185502 -0.260524
H5    H     H_    0.480214 0.179660 0.217637 0.128809
C29   C     C_2   0.773546 0.260300 0.297497 0.269333
C30   C     C_2   0.643740 0.326633 0.310238 0.137756
O11   O     O_R   0.770210 0.079270 0.910680 -0.514668
O12   O     O_R   0.440150 0.091160 0.082270 -0.552766
O13   O     O_R   0.269970 0.914530 0.082860 -0.554354
C31   C     C_R   0.609588 0.111617 0.111631 0.764321
O14   O     O_R   0.440480 0.090100 0.911240 -0.544648
O15   O     O_R   0.270310 0.913460 0.910610 -0.550344
C32   C     C_R   0.609719 0.108126 0.880883 0.675634
O16   O     O_R   0.769870 0.080340 0.082930 -0.515748
O17   O     O_3   0.603660 0.938980 0.996790 -0.375055
V3    V     V_3+5 0.328750 0.007610 0.996740 1.488195
O18   O     O_R   0.940600 0.902510 0.911180 -0.521678
C33   C     C_R   0.107886 0.880920 0.882310 0.854064
O19   O     O_R   0.940270 0.903570 0.082200 -0.511957
C34   C     C_R   0.108448 0.886275 0.113851 0.688655
V4    V     V_3+5 0.828770 0.986010 0.996670 1.550026
O20   O     O_3   0.103730 0.054750 0.996710 -0.353809
O21   O     O_3   0.815836 0.762491 0.159888 -0.657456
H6    H     H_    0.729116 0.715224 0.182121 0.282517
O22   O     O_3   0.275844 0.839724 0.242240 -0.666612
H7    H     H_    0.357218 0.890742 0.223683 0.288356
O23   O     O_3   0.915321 0.227424 0.847166 -0.643555
H8    H     H_    0.011048 0.271757 0.826572 0.331197
O24   O     O_3   0.484909 0.145032 0.742053 -0.630439
H9    H     H_    0.399955 0.094553 0.758783 0.291462
N1    N     N_3   0.958852 0.255548 0.662562 -0.655744
H10   H     H_    0.037910 0.315423 0.662716 0.231270
H11   H     H_    0.921549 0.238183 0.602002 0.244979
O25   O     O_3   0.473723 0.321078 0.731075 -0.621742
H12   H     H_    0.363697 0.331224 0.693629 0.313852
N2    N     N_3   0.959411 0.199064 0.175770 -0.620343
H13   H     H_    0.053059 0.161504 0.212005 0.208996
H14   H     H_    0.019608 0.263291 0.168793 0.244574
O26   O     O_3   0.908717 0.243329 0.358164 -0.654774
H15   H     H_    0.977512 0.187437 0.343578 0.278517
N3    N     N_3   0.233266 0.498490 0.726418 -0.663756
H16   H     H_    0.137419 0.443914 0.726852 0.238361
H17   H     H_    0.370906 0.477990 0.743750 0.271722
O27   O     O_3   0.507433 0.343685 0.249964 -0.664410
H18   H     H_    0.433427 0.397678 0.266047 0.284574
O28   O     O_3   0.175520 0.442110 0.883642 -0.635717
H19   H     H_    0.157135 0.431675 0.943344 0.300150
N4    N     N_3   0.058355 0.741964 0.982451 -0.657843
H20   H     H_    0.926134 0.721793 0.007328 0.261603
H21   H     H_    0.165710 0.731679 0.026678 0.216106
N5    N     N_3   0.990483 0.995820 0.767397 -0.657001
H22   H     H_    0.853020 0.013832 0.747232 0.227879
H23   H     H_    0.076986 0.053686 0.770465 0.264405
N6    N     N_3   0.056190 0.056157 0.607668 -0.627302
H24   H     H_    0.107580 0.071306 0.548897 0.234685
H25   H     H_    0.906566 0.063871 0.605613 0.235549
O29   O     O_3   0.235505 0.756586 0.520435 -0.655106
H26   H     H_    0.251530 0.790877 0.468753 0.292658

loop_
_geom_bond_atom_site_label_1
_geom_bond_atom_site_label_2
_ccdc_geom_bond_type
O18   V4    S    
O28   H19   S    
N6    H24   S    
C23   O23   S    
C6    C7    A    
C1    O6    A    
O15   C33   A    
C23   C25   S    
C8    N4    S    
N2    H13   S    
C12   C15   A    
O11   C32   A    
C26   O25   S    
C16   C17   A    
C24   O24   S    
C30   O27   S    
C9    C11   A    
C15   C16   A    
C21   C22   D    
C6    O28   S    
O5    C3    A    
C17   C18   A    
V2    O10   S    
O16   V4    S    
O12   V3    S    
O17   V3    S    
O19   V4    S    
C5    C6    A    
C25   C26   D    
C18   O29   S    
C5    N3    S    
O8    V2    S    
C22   O22   S    
O23   H8    S    
O12   C31   A    
O24   H9    S    
O1    V2    S    
C10   C14   A    
C4    C14   S    
N4    H21   S    
O7    V1    S    
C31   O16   A    
C22   C34   S    
O22   H7    S    
C13   C18   A    
C8    C9    A    
H1    C17   S    
O14   C32   A    
V3    O20   S    
N2    H14   S    
C5    C10   A    
C11   C12   A    
N1    H11   S    
C23   C24   D    
O4    C2    A    
O15   V3    S    
O26   H15   S    
O18   C33   A    
O27   H18   S    
C19   C21   S    
O19   C34   A    
C2    C30   S    
O2    C1    A    
O25   H12   S    
V4    O20   S    
O11   V4    S    
N5    H23   S    
C19   C20   D    
C13   C14   A    
C15   N5    S    
O3    C4    A    
C25   N1    S    
C28   C31   S    
O29   H26   S    
O6    V2    S    
N3    H17   S    
O9    V2    S    
C27   C28   D    
O17   V4    S    
C3    C20   S    
O2    V1    S    
C21   O21   S    
C28   H5    S    
C16   N6    S    
C7    H2    S    
C29   C30   D    
O1    C2    A    
O13   V3    S    
N1    H10   S    
O5    V1    S    
O8    C3    A    
N6    H25   S    
C27   N2    S    
C24   C32   S    
O21   H6    S    
C12   C13   A    
O4    V1    S    
O3    V1    S    
V1    O10   S    
C29   O26   S    
C1    C26   S    
C11   C33   S    
N5    H22   S    
C19   H3    S    
C20   H4    S    
O7    V2    S    
C27   C29   S    
O14   V3    S    
C7    C8    A    
N3    H16   S    
O13   C34   A    
C9    C10   A    
N4    H20   S    
O9    C4    A    
