data_mof_unit_pretest_788.cif
_audit_creation_date              2012-12-10T18:43:42-0500
_audit_creation_method            fapswitch 2.2
_symmetry_space_group_name_H-M    P1
_symmetry_Int_Tables_number       1
_space_group_crystal_system       triclinic
_cell_length_a                    10.84817
_cell_length_b                    10.678689
_cell_length_c                    9.843941
_cell_angle_alpha                 90.235098
_cell_angle_beta                  104.04268
_cell_angle_gamma                 89.445252
_cell_volume                      1106.23064988

loop_
_atom_site_label
_atom_site_type_symbol
_atom_type_description
_atom_site_fract_x
_atom_site_fract_y
_atom_site_fract_z
_atom_type_partial_charge
C1    C     C_R   0.505192 0.260170 0.500871 0.962591
C2    C     C_R   0.494285 0.739825 0.499013 0.977743
C3    C     C_R   0.259329 0.496063 0.441640 0.985722
C4    C     C_R   0.740913 0.498574 0.558351 0.968409
C5    C     C_R   0.576745 0.579255 0.092761 -0.034162
C6    C     C_R   0.423252 0.420741 0.907236 -0.050493
C7    C     C_R   0.576698 0.579228 0.948882 -0.001963
C8    C     C_R   0.423263 0.420803 0.051105 -0.014821
C9    C     C_2   0.123328 0.485755 0.408271 -0.320181
C10   C     C_2   0.877277 0.489083 0.591472 -0.319518
C11   C     C_2   0.067935 0.468058 0.513135 -0.161731
C12   C     C_2   0.932764 0.471387 0.486287 -0.050965
C13   C     C_R   0.587359 0.058828 0.435856 0.396982
C14   C     C_R   0.412115 0.941237 0.564467 0.475489
C15   C     C_R   0.578791 0.930356 0.435264 -0.316524
C16   C     C_R   0.420452 0.069753 0.564615 -0.305748
C17   C     C_R   0.493115 0.872349 0.499382 -0.221858
C18   C     C_R   0.506097 0.127688 0.500476 -0.219530
H1    H     H_    0.878580 0.464584 0.377892 0.205007
H2    H     H_    0.122171 0.458734 0.621277 0.188846
H3    H     H_    0.638112 0.642637 0.163907 0.131367
H4    H     H_    0.361894 0.357346 0.836090 0.133084
H5    H     H_    0.931820 0.496047 0.699574 0.150719
H6    H     H_    0.068716 0.495275 0.300425 0.161059
H7    H     H_    0.637968 0.642618 0.910998 0.135926
H8    H     H_    0.362010 0.357397 0.088994 0.132741
H9    H     H_    0.641148 0.874490 0.387746 0.203102
H10   H     H_    0.358273 0.125750 0.612232 0.203873
N1    N     N_R   0.499970 0.499970 0.857200 -0.082976
N2    N     N_R   0.500030 0.500030 0.142800 -0.077669
O1    O     O_R   0.499990 0.316750 0.614620 -0.633255
O2    O     O_R   0.500010 0.683250 0.385380 -0.632084
O3    O     O_R   0.499990 0.316780 0.385290 -0.574959
O4    O     O_R   0.500010 0.683220 0.614710 -0.572654
O5    O     O_R   0.317810 0.500000 0.571850 -0.608121
O6    O     O_R   0.682190 0.500000 0.428150 -0.603257
O7    O     O_R   0.317810 0.500030 0.342520 -0.624022
O8    O     O_R   0.682190 0.499970 0.657480 -0.627085
Zn1   Zn    Zn3+2 0.500000 0.499980 0.653120 1.010001
Zn2   Zn    Zn3+2 0.500000 0.500020 0.346880 1.015009
S1    S     S_3+6 0.705624 0.128082 0.364250 0.053738
O9    O     O_2   0.779327 0.220021 0.467703 -0.281535
O10   O     O_2   0.795934 0.030399 0.333544 -0.270137
O11   O     O_3   0.637538 0.203703 0.215031 -0.517507
H11   H     H_    0.582034 0.140909 0.156480 0.345783
S2    S     S_3+6 0.295200 0.872139 0.638247 0.040435
O12   O     O_2   0.358664 0.806727 0.772229 -0.292112
O13   O     O_2   0.205525 0.970494 0.668981 -0.279709
O14   O     O_3   0.212029 0.768043 0.524658 -0.567876
H12   H     H_    0.147391 0.735768 0.571103 0.384827

loop_
_geom_bond_atom_site_label_1
_geom_bond_atom_site_label_2
_ccdc_geom_bond_type
C16   H10   S    
O5    Zn1   S    
C11   C12   S    
C4    O6    A    
C9    H6    S    
C15   C17   A    
C3    C9    S    
C10   H5    S    
C8    H8    S    
S1    O9    D    
S1    O10   D    
C15   H9    S    
C7    H7    S    
C13   C15   A    
C3    O5    A    
C8    N2    A    
N1    Zn1   S    
C13   S1    S    
C1    O3    A    
C14   S2    S    
C2    C17   S    
C9    C11   D    
S2    O14   S    
C2    O4    A    
C1    C18   S    
C10   C12   D    
C13   C18   A    
C7    N1    A    
C12   H1    S    
C16   C18   A    
O1    Zn1   S    
O14   H12   S    
O7    Zn2   S    
S2    O13   D    
O2    Zn2   S    
O8    Zn1   S    
S1    O11   S    
C14   C16   A    
C11   H2    S    
O3    Zn2   S    
C4    C10   S    
O4    Zn1   S    
C6    H4    S    
C1    O1    A    
C6    N1    A    
C5    H3    S    
O11   H11   S    
C3    O7    A    
C2    O2    A    
C5    N2    A    
C5    C7    A    
N2    Zn2   S    
S2    O12   D    
O6    Zn2   S    
C6    C8    A    
C4    O8    A    
C14   C17   A    
