data_mof_unit_pretest_1712.cif
_audit_creation_date              2012-12-10T21:32:00-0500
_audit_creation_method            fapswitch 2.2
_symmetry_space_group_name_H-M    P1
_symmetry_Int_Tables_number       1
_space_group_crystal_system       triclinic
_cell_length_a                    15.534289
_cell_length_b                    16.174271
_cell_length_c                    16.921186
_cell_angle_alpha                 91.792648
_cell_angle_beta                  89.439452
_cell_angle_gamma                 109.639614
_cell_volume                      4002.25276064

loop_
_atom_site_label
_atom_site_type_symbol
_atom_type_description
_atom_site_fract_x
_atom_site_fract_y
_atom_site_fract_z
_atom_type_partial_charge
C1    C     C_R   0.501738 0.489743 0.347401 0.899712
C2    C     C_R   0.497942 0.510142 0.652587 0.899562
C3    C     C_R   0.901731 0.396139 0.483236 0.129867
C4    C     C_R   0.098199 0.603812 0.518293 0.129577
C5    C     C_R   0.938789 0.333074 0.507045 0.085517
C6    C     C_R   0.061263 0.666949 0.494406 0.085794
C7    C     C_R   0.506804 0.484660 0.261938 -0.084073
C8    C     C_R   0.490525 0.514389 0.737925 -0.083922
C9    C     C_R   0.522458 0.560782 0.219255 -0.186928
C10   C     C_R   0.472891 0.437679 0.780149 -0.187206
C11   C     C_R   0.525222 0.556478 0.137920 -0.127943
C12   C     C_R   0.466816 0.440968 0.861350 -0.128314
C13   C     C_R   0.511039 0.475402 0.097737 0.224280
C14   C     C_R   0.479793 0.521627 0.901894 0.224131
C15   C     C_R   0.499845 0.399120 0.140266 -0.032017
C16   C     C_R   0.492726 0.598455 0.859688 -0.031846
C17   C     C_R   0.497393 0.404423 0.222756 -0.166178
C18   C     C_R   0.498434 0.594164 0.777323 -0.165597
C19   C     C_R   0.541476 0.777802 0.541127 -0.033381
C20   C     C_R   0.458690 0.222254 0.458738 -0.033268
C21   C     C_R   0.539426 0.864276 0.539304 -0.227687
C22   C     C_R   0.460762 0.135785 0.460533 -0.227449
C23   C     C_R   0.326771 0.445153 0.502163 0.901970
C24   C     C_R   0.673229 0.554851 0.497875 0.902340
C25   C     C_R   0.482482 0.885302 0.484420 0.299427
C26   C     C_R   0.517562 0.114708 0.515523 0.299212
C27   C     C_R   0.429797 0.818545 0.433686 -0.262645
C28   C     C_R   0.570081 0.181408 0.566390 -0.262614
C29   C     C_R   0.433480 0.733532 0.436848 0.306071
C30   C     C_R   0.566366 0.266412 0.563266 0.306258
C31   C     C_R   0.227039 0.410897 0.504761 -0.119008
C32   C     C_R   0.772972 0.589121 0.495557 -0.118934
C33   C     C_R   0.081384 0.293043 0.514072 -0.001343
C34   C     C_R   0.918668 0.706935 0.486426 -0.001149
C35   C     C_R   0.177444 0.322659 0.516259 -0.173158
C36   C     C_R   0.822619 0.677306 0.483876 -0.173596
C37   C     C_R   0.181199 0.469594 0.494461 -0.165094
C38   C     C_R   0.818771 0.530494 0.506395 -0.165148
C39   C     C_R   0.088084 0.446594 0.506944 0.089013
C40   C     C_R   0.911919 0.553430 0.494181 0.088883
C41   C     C_R   0.034907 0.355888 0.511275 -0.015163
C42   C     C_R   0.965149 0.644125 0.489766 -0.015142
C43   C     C_R   0.047135 0.512721 0.507795 -0.033859
C44   C     C_R   0.952807 0.487264 0.493590 -0.033743
H1    H     H_    0.415077 0.238068 0.416593 0.150534
H2    H     H_    0.585209 0.762029 0.583183 0.150449
H3    H     H_    0.418473 0.086536 0.419471 0.181405
H4    H     H_    0.581851 0.913570 0.580256 0.181273
H5    H     H_    0.385613 0.832892 0.391014 0.193218
H6    H     H_    0.614148 0.167019 0.609148 0.193288
H7    H     H_    0.781110 0.465673 0.526103 0.203205
H8    H     H_    0.218793 0.534522 0.474944 0.203248
H9    H     H_    0.786559 0.723900 0.479502 0.192961
H10   H     H_    0.213530 0.276041 0.520214 0.193250
H11   H     H_    0.463907 0.374955 0.750571 0.186288
H12   H     H_    0.532393 0.623818 0.248581 0.186483
H13   H     H_    0.453425 0.380526 0.892666 0.156974
H14   H     H_    0.537414 0.616552 0.106293 0.156847
H15   H     H_    0.486734 0.345874 0.256376 0.203003
H16   H     H_    0.510410 0.653127 0.744001 0.203104
N1    N     N_2   0.507018 0.469191 0.014658 -0.204738
N2    N     N_2   0.482664 0.527259 0.985016 -0.204810
N3    N     N_R   0.489120 0.713640 0.490430 -0.110587
N4    N     N_R   0.510880 0.286360 0.509570 -0.110709
N5    N     N_2   0.475164 0.970854 0.477149 -0.149699
N6    N     N_2   0.524890 0.029159 0.522778 -0.149733
O1    O     O_R   0.503890 0.423710 0.387290 -0.622026
O2    O     O_R   0.496110 0.576290 0.612710 -0.622053
O3    O     O_R   0.496910 0.560910 0.381140 -0.600916
O4    O     O_R   0.503090 0.439090 0.618860 -0.600946
O5    O     O_R   0.373240 0.392210 0.504830 -0.626583
O6    O     O_R   0.626760 0.607790 0.495170 -0.626386
O7    O     O_R   0.366260 0.529410 0.498680 -0.584488
O8    O     O_R   0.633740 0.470590 0.501320 -0.584296
Zn1   Zn    Zn3+2 0.504660 0.408390 0.504100 0.991167
Zn2   Zn    Zn3+2 0.495340 0.591610 0.495900 0.991195
I1    I     I_    0.842824 0.215248 0.552323 -0.289256
I2    I     I_    0.157580 0.785022 0.449855 -0.288537
I3    I     I_    0.348880 0.642146 0.353816 -0.320576
I4    I     I_    0.650667 0.357682 0.646545 -0.319521
C45   C     C_2   0.035326 0.197319 0.502176 0.467072
H17   H     H_    0.977438 0.172518 0.462474 0.103466
O9    O     O_2   0.063875 0.145038 0.534250 -0.522536
C46   C     C_2   0.964618 0.802688 0.498053 0.467045
H18   H     H_    0.021890 0.827676 0.538380 0.103257
O10   O     O_2   0.936641 0.854782 0.465010 -0.522030
I5    I     I_    0.785149 0.348309 0.405772 -0.283216
I6    I     I_    0.214699 0.651300 0.595886 -0.282627
C47   C     C_2   0.488183 0.313759 0.098774 0.439152
H19   H     H_    0.489306 0.309133 0.034692 0.079389
O11   O     O_2   0.477310 0.247300 0.135673 -0.542472
C48   C     C_2   0.503077 0.683380 0.901481 0.439113
H20   H     H_    0.499206 0.687172 0.965477 0.079292
O12   O     O_2   0.515896 0.750397 0.864924 -0.542146

loop_
_geom_bond_atom_site_label_1
_geom_bond_atom_site_label_2
_ccdc_geom_bond_type
C38   C40   A    
C29   N3    A    
C30   N4    A    
C27   C29   A    
C34   C42   A    
O6    Zn2   S    
C45   H17   S    
C19   H2    S    
C39   C41   A    
C32   C36   A    
C19   C21   A    
C46   O10   D    
C2    O2    A    
C6    I2    S    
N3    Zn2   S    
C14   N2    S    
O3    Zn2   S    
C15   C17   A    
C5    C41   A    
C36   H9    S    
C33   C35   A    
C28   H6    S    
C19   N3    A    
C7    C17   A    
C32   C38   A    
C47   O11   D    
C11   H14   S    
C34   C36   A    
C20   H1    S    
C21   H4    S    
C30   I4    S    
C40   C42   A    
C22   H3    S    
C35   H10   S    
C34   C46   S    
C23   O7    A    
C45   O9    D    
C3    C44   A    
O8    Zn1   S    
C3    I5    S    
C26   N6    S    
C23   O5    A    
C25   N5    S    
C46   H18   S    
C4    C6    A    
C37   H8    S    
C39   C43   A    
C38   H7    S    
C1    O3    A    
C31   C37   A    
C23   C31   S    
C20   N4    A    
C43   C44   A    
C24   C32   S    
C15   C47   S    
C29   I3    S    
C48   O12   D    
O1    Zn1   S    
C9    H12   S    
C10   H11   S    
C9    C11   A    
C10   C12   A    
C17   H15   S    
C12   H13   S    
C18   H16   S    
C12   C14   A    
C16   C48   S    
C13   C15   A    
C22   C26   A    
O7    Zn2   S    
C14   C16   A    
C25   C27   A    
C5    I1    S    
C24   O6    A    
C7    C9    A    
C21   C25   A    
C1    C7    S    
C16   C18   A    
C2    C8    S    
C20   C22   A    
C3    C5    A    
C4    I6    S    
C4    C43   A    
O2    Zn2   S    
C26   C28   A    
C33   C41   A    
C28   C30   A    
C37   C39   A    
O5    Zn1   S    
C11   C13   A    
C24   O8    A    
C48   H20   S    
C1    O1    A    
N4    Zn1   S    
C31   C35   A    
N1    N2    D    
C8    C18   A    
C40   C44   A    
C13   N1    S    
C8    C10   A    
N5    N6    D    
C6    C42   A    
O4    Zn1   S    
C47   H19   S    
C2    O4    A    
C33   C45   S    
C27   H5    S    
