data_mof_unit_pretest_419.cif
_audit_creation_date              2012-12-11T14:56:39-0500
_audit_creation_method            fapswitch 2.2
_symmetry_space_group_name_H-M    P1
_symmetry_Int_Tables_number       1
_space_group_crystal_system       triclinic
_cell_length_a                    10.476807
_cell_length_b                    10.641473
_cell_length_c                    17.038691
_cell_angle_alpha                 80.490706
_cell_angle_beta                  89.641502
_cell_angle_gamma                 118.910363
_cell_volume                      1631.85379062

loop_
_atom_site_label
_atom_site_type_symbol
_atom_type_description
_atom_site_fract_x
_atom_site_fract_y
_atom_site_fract_z
_atom_type_partial_charge
C1    C     C_R   0.279985 0.889452 0.132668 0.556894
C2    C     C_R   0.829988 0.453001 0.251622 -0.037618
C3    C     C_R   0.808271 0.422743 0.175546 -0.122256
C4    C     C_R   0.668230 0.366642 0.149101 0.010064
C5    C     C_1   0.685396 0.831620 0.201614 -0.023758
C6    C     C_1   0.703696 0.807261 0.270370 -0.034234
C7    C     C_1   0.229574 0.855605 0.215531 -0.023384
C8    C     C_1   0.180769 0.835681 0.283284 -0.016990
C9    C     C_1   0.661799 0.358616 0.780623 -0.036540
C10   C     C_1   0.684469 0.402797 0.710054 -0.042597
C11   C     C_R   0.622629 0.711564 0.804998 -0.131656
C12   C     C_R   0.638495 0.283857 0.085074 0.537673
C13   C     C_R   0.607413 0.697303 0.726547 -0.118670
C14   C     C_R   0.669867 0.822092 0.665741 0.047145
C15   C     C_R   0.753344 0.961269 0.683742 -0.136671
C16   C     C_R   0.764446 0.976089 0.762950 -0.138566
C17   C     C_R   0.692434 0.851170 0.823590 0.016733
C18   C     C_R   0.095045 0.891888 0.787700 -0.151500
C19   C     C_R   0.088178 0.893432 0.707616 -0.151673
C20   C     C_R   0.125811 0.805294 0.670847 -0.002497
C21   C     C_R   0.159139 0.703960 0.717240 0.021042
C22   C     C_R   0.160176 0.698689 0.800126 -0.044855
C23   C     C_R   0.643638 0.855726 0.124171 0.542398
C24   C     C_R   0.143429 0.805077 0.832987 -0.018365
C25   C     C_R   0.711452 0.772608 0.353484 0.533296
C26   C     C_R   0.728426 0.460529 0.382879 0.537142
C27   C     C_R   0.109123 0.812718 0.360120 0.548404
C28   C     C_R   0.677370 0.800100 0.585556 0.568400
C29   C     C_R   0.717427 0.446850 0.626078 0.553920
C30   C     C_R   0.094479 0.800132 0.588411 0.572142
C31   C     C_R   0.213818 0.856066 0.903278 0.553562
C32   C     C_R   0.640319 0.291177 0.861971 0.548937
C33   C     C_R   0.648303 0.866338 0.899914 0.543300
C34   C     C_R   0.555186 0.366148 0.193290 -0.132364
C35   C     C_R   0.578375 0.406110 0.267786 -0.136593
C36   C     C_R   0.712538 0.440316 0.299876 -0.006709
Cr1   Cr    Cr6+3 0.402240 0.783890 0.019450 1.053056
Cr2   Cr    Cr6+3 0.382360 0.097900 0.991800 1.038662
Cr3   Cr    Cr6+3 0.715380 0.118170 0.988700 1.048644
Cr4   Cr    Cr6+3 0.936650 0.882420 0.465510 1.034456
Cr5   Cr    Cr6+3 0.605770 0.565620 0.493360 1.052831
Cr6   Cr    Cr6+3 0.921340 0.550490 0.496380 1.073229
H1    H     H_    0.446963 0.325826 0.172966 0.143693
H2    H     H_    0.052678 0.965207 0.674558 0.158114
H3    H     H_    0.487765 0.400024 0.302317 0.157644
H4    H     H_    0.898143 0.428403 0.140228 0.149384
H5    H     H_    0.568427 0.614034 0.851284 0.143779
H6    H     H_    0.549069 0.588072 0.713552 0.143578
H7    H     H_    0.808033 0.057525 0.636754 0.145168
H8    H     H_    0.819277 0.085103 0.776433 0.165464
H9    H     H_    0.073872 0.968111 0.812712 0.152372
O1    O     O_R   0.521780 0.757110 0.108900 -0.511660
O2    O     O_R   0.513330 0.228330 0.898660 -0.493632
O3    O     O_R   0.739230 0.266130 0.888050 -0.496028
O4    O     O_R   0.712580 0.991850 0.918770 -0.501638
O5    O     O_3   0.499990 0.999980 0.999980 -0.272204
O6    O     O_R   0.083770 0.911170 0.376030 -0.507861
O7    O     O_R   0.808770 0.880340 0.383890 -0.475522
O8    O     O_R   0.584340 0.689460 0.394160 -0.489011
O9    O     O_R   0.614320 0.443940 0.423590 -0.503301
O10   O     O_R   0.805020 0.410040 0.421340 -0.478674
O11   O     O_R   0.049240 0.685450 0.403290 -0.493175
O12   O     O_R   0.275160 0.783810 0.101120 -0.486996
O13   O     O_R   0.077520 0.903010 0.551800 -0.519707
O14   O     O_R   0.802980 0.872780 0.546830 -0.510732
O15   O     O_R   0.578090 0.681300 0.569920 -0.480724
O16   O     O_R   0.608530 0.436370 0.586530 -0.487930
O17   O     O_R   0.798770 0.401880 0.597100 -0.482168
O18   O     O_R   0.043450 0.677890 0.566230 -0.485474
O19   O     O_3   0.821250 0.666180 0.485090 -0.337415
O20   O     O_R   0.237900 0.972600 0.090980 -0.509153
O21   O     O_R   0.511190 0.220540 0.061620 -0.518545
O22   O     O_R   0.736920 0.257720 0.063840 -0.515967
O23   O     O_R   0.710450 0.984050 0.081720 -0.492893
O24   O     O_R   0.524090 0.765520 0.933110 -0.504698
O25   O     O_R   0.277300 0.791600 0.938160 -0.490037
O26   O     O_R   0.240210 0.981010 0.915190 -0.507432
C37   C     C_2   0.199869 0.610033 0.679313 0.585926
O27   O     O_2   0.288883 0.664033 0.620126 -0.495452
O28   O     O_R   0.136313 0.460441 0.711005 -0.694221
H10   H     H_    0.173192 0.408955 0.679922 0.334470
C38   C     C_1   0.185195 0.589377 0.849735 0.287750
N1    N     N_1   0.204971 0.502024 0.889175 -0.270088
C39   C     C_1   0.969297 0.480732 0.280002 0.227210
N2    N     N_1   0.080494 0.500390 0.302193 -0.266644

loop_
_geom_bond_atom_site_label_1
_geom_bond_atom_site_label_2
_ccdc_geom_bond_type
C33   O4    A    
C30   O13   A    
C11   H5    S    
C35   C36   A    
C23   O1    A    
C7    C8    T    
Cr5   O16   S    
C20   C30   S    
C1    O20   A    
Cr4   O19   S    
C18   C24   A    
C22   C38   S    
C26   O10   A    
C16   H8    S    
C18   C19   A    
C5    C6    T    
C37   O28   S    
Cr3   O3    S    
C15   C16   A    
Cr6   O19   S    
C34   C35   A    
Cr3   O23   S    
C12   O22   A    
C9    C32   S    
C29   O16   A    
Cr1   O5    S    
C2    C39   S    
C33   O24   A    
Cr3   O4    S    
C19   C20   A    
C16   C17   A    
C21   C37   S    
C4    C12   S    
C9    C10   T    
Cr6   O11   S    
C15   H7    S    
Cr1   O24   S    
C13   C14   A    
Cr6   O17   S    
C17   C33   S    
C1    O12   A    
C32   O3    A    
Cr1   O12   S    
C18   H9    S    
C31   O26   A    
C4    C34   A    
Cr2   O21   S    
Cr4   O7    S    
C39   N2    T    
Cr5   O8    S    
C27   O6    A    
Cr1   O1    S    
C37   O27   D    
Cr6   O18   S    
C28   O15   A    
C27   O11   A    
C29   O17   A    
Cr3   O5    S    
C5    C23   S    
Cr6   O10   S    
C26   C36   S    
Cr1   O25   S    
Cr4   O14   S    
C22   C24   A    
C25   O7    A    
C23   O23   A    
C3    C4    A    
C35   H3    S    
C32   O2    A    
C30   O18   A    
C19   H2    S    
C2    C36   A    
Cr2   O20   S    
C11   C17   A    
Cr4   O6    S    
C1    C7    S    
C34   H1    S    
Cr5   O9    S    
O28   H10   S    
C13   H6    S    
Cr5   O15   S    
Cr2   O26   S    
C3    H4    S    
Cr4   O13   S    
C2    C3    A    
C24   C31   S    
C11   C13   A    
C10   C29   S    
C31   O25   A    
Cr2   O2    S    
C28   O14   A    
Cr3   O22   S    
C12   O21   A    
C6    C25   S    
Cr2   O5    S    
C20   C21   A    
C38   N1    T    
C8    C27   S    
C14   C15   A    
C25   O8    A    
C14   C28   S    
C21   C22   A    
C26   O9    A    
Cr5   O19   S    
