data_mof_unit_pretest_871.cif
_audit_creation_date              2012-12-10T19:42:59-0500
_audit_creation_method            fapswitch 2.2
_symmetry_space_group_name_H-M    P1
_symmetry_Int_Tables_number       1
_space_group_crystal_system       triclinic
_cell_length_a                    18.249185
_cell_length_b                    18.400848
_cell_length_c                    18.325931
_cell_angle_alpha                 119.705791
_cell_angle_beta                  90.031784
_cell_angle_gamma                 59.714031
_cell_volume                      4353.06884316

loop_
_atom_site_label
_atom_site_type_symbol
_atom_type_description
_atom_site_fract_x
_atom_site_fract_y
_atom_site_fract_z
_atom_type_partial_charge
C1    C     C_R   0.859399 0.780177 0.641505 0.522549
C2    C     C_R   0.137665 0.493927 0.914260 0.238876
C3    C     C_R   0.082250 0.496078 0.861451 0.342155
C4    C     C_R   0.138631 0.219883 0.360266 0.568929
C5    C     C_R   0.088446 0.522733 0.803332 0.223825
C6    C     C_R   0.232862 0.050779 0.338427 0.003257
C7    C     C_R   0.184153 0.108746 0.305854 -0.001084
C8    C     C_R   0.176237 0.057400 0.220821 0.220208
C9    C     C_R   0.231983 0.948676 0.163362 0.213253
C10   C     C_R   0.291407 0.891905 0.194644 -0.031028
C11   C     C_R   0.283905 0.945222 0.283996 0.019928
C12   C     C_R   0.426057 0.441056 0.684598 0.156644
C13   C     C_3   0.355238 0.931580 0.326213 0.134334
C14   C     C_3   0.299135 0.049440 0.388126 0.407575
C15   C     C_R   0.179423 0.585380 0.318430 -0.079918
C16   C     C_R   0.859456 0.497589 0.637145 0.561967
C17   C     C_R   0.200398 0.494319 0.303548 -0.023943
C18   C     C_R   0.273511 0.399163 0.227408 0.230182
C19   C     C_R   0.328008 0.398282 0.171696 0.188623
C20   C     C_R   0.309045 0.493474 0.193997 -0.047606
C21   C     C_R   0.232407 0.585257 0.265155 -0.035436
C22   C     C_3   0.215773 0.684070 0.340463 0.483598
C23   C     C_R   0.337283 0.473791 0.718938 -0.091713
C24   C     C_3   0.157092 0.683701 0.400609 0.463841
C25   C     C_R   0.841046 0.944827 0.710681 -0.048606
C26   C     C_R   0.802238 0.892023 0.696345 -0.010318
C27   C     C_R   0.707147 0.949935 0.731765 0.233524
C28   C     C_R   0.140985 0.498805 0.360183 0.521396
C29   C     C_R   0.655538 0.056755 0.781103 -0.024621
C30   C     C_R   0.696537 0.108604 0.802969 -0.007400
C31   C     C_R   0.789984 0.050795 0.765115 -0.024370
C32   C     C_3   0.864222 0.052343 0.800909 0.433438
C33   C     C_3   0.921453 0.933585 0.739023 0.459041
C34   C     C_R   0.282015 0.478762 0.665240 -0.065536
C35   C     C_R   0.721331 0.529096 0.330796 -0.038203
C36   C     C_R   0.801538 0.515793 0.307770 -0.025031
C37   C     C_R   0.820127 0.523569 0.237727 0.199506
C38   C     C_R   0.771979 0.511530 0.175516 0.152468
C39   C     C_R   0.697304 0.509200 0.195152 -0.008289
C40   C     C_R   0.859445 0.502112 0.360634 0.581630
C41   C     C_R   0.669977 0.527133 0.276660 -0.093677
C42   C     C_3   0.634678 0.484007 0.306475 0.438462
C43   C     C_3   0.692790 0.487171 0.367933 0.464358
C44   C     C_R   0.712268 0.572090 0.732069 -0.069181
C45   C     C_R   0.304589 0.497641 0.803529 0.059947
C46   C     C_R   0.801694 0.488081 0.680880 -0.062011
C47   C     C_R   0.831516 0.395028 0.671272 0.167477
C48   C     C_R   0.780277 0.398569 0.733063 0.240755
C49   C     C_R   0.696485 0.491440 0.795858 0.026529
C50   C     C_R   0.662529 0.574016 0.789829 0.001638
C51   C     C_3   0.613042 0.687328 0.858711 0.454472
C52   C     C_R   0.140681 0.499105 0.639057 0.522202
C53   C     C_3   0.664472 0.687155 0.791476 0.471175
C54   C     C_R   0.361843 0.498094 0.139659 0.576556
C55   C     C_R   0.640598 0.499422 0.859631 0.609675
C56   C     C_R   0.222743 0.512267 0.830688 -0.060587
C57   C     C_R   0.357332 0.780123 0.139526 0.553745
C58   C     C_R   0.640565 0.219905 0.860530 0.587986
C59   C     C_R   0.640835 0.501619 0.139482 0.594359
C60   C     C_R   0.359087 0.500812 0.861140 0.626583
C61   C     C_R   0.315928 0.460089 0.582371 0.220525
C62   C     C_R   0.390641 0.461372 0.565937 0.266920
C63   C     C_R   0.443646 0.457598 0.621748 0.222067
C64   C     C_R   0.169126 0.511328 0.775270 -0.078753
C65   C     C_R   0.197486 0.498131 0.694511 0.039896
C66   C     C_R   0.192614 0.526003 0.911433 0.144342
H1    H     H_    0.421796 0.892420 0.278996 0.141125
H2    H     H_    0.275480 0.734779 0.416577 0.388626
H3    H     H_    0.040101 0.849236 0.287644 0.406098
H4    H     H_    0.250597 0.608321 0.437910 0.366096
H5    H     H_    0.278785 0.379245 0.504502 0.343495
H6    H     H_    0.033640 0.747467 0.461637 0.347160
H7    H     H_    0.693372 0.860492 0.745033 0.386946
H8    H     H_    0.953323 0.079116 0.644132 0.403960
H9    H     H_    0.918851 0.080863 0.002329 0.402557
H10   H     H_    0.025525 0.814372 0.632885 0.385571
H11   H     H_    0.894682 0.895006 0.813314 0.335227
H12   H     H_    0.583222 0.098988 0.807876 0.218336
H13   H     H_    0.956146 0.621359 0.325997 0.364474
H14   H     H_    0.893353 0.325061 0.002521 0.372686
H15   H     H_    0.523932 0.623411 0.389245 0.359029
H16   H     H_    0.396602 0.417777 0.345377 0.360431
H17   H     H_    0.536207 0.411166 0.201643 0.368788
H18   H     H_    0.619349 0.530239 0.475952 0.403897
H19   H     H_    0.811768 0.353820 0.294402 0.331790
H20   H     H_    0.881822 0.297347 0.477985 0.345517
H21   H     H_    0.876714 0.272509 0.715822 0.383990
H22   H     H_    0.493235 0.813116 0.917782 0.378861
H23   H     H_    0.856614 0.583670 0.956772 0.377205
H24   H     H_    0.697261 0.659453 0.924620 0.309333
H25   H     H_    0.617434 0.753947 0.629581 0.394681
H26   H     H_    0.769926 0.668795 0.829755 0.318750
H27   H     H_    0.672014 0.379636 0.544259 0.366853
H28   H     H_    0.467821 0.249157 0.652616 0.351848
H29   H     H_    0.132064 0.630023 0.125930 0.366943
H30   H     H_    0.179597 0.462555 0.998544 0.334558
H31   H     H_    0.008065 0.621409 0.780336 0.325189
H32   H     H_    0.059674 0.169984 0.242274 0.343039
H33   H     H_    0.313054 0.912096 0.002252 0.361381
H34   H     H_    0.413243 0.866650 0.385046 0.358739
H35   H     H_    0.232246 0.250501 0.588502 0.358553
H36   H     H_    0.472293 0.097136 0.402373 0.393620
H37   H     H_    0.279205 0.314263 0.264174 0.361739
H38   H     H_    0.341803 0.255922 0.995451 0.364875
O1    O     O_3   0.000000 0.500000 0.500000 -0.507532
O2    O     O_R   0.676550 0.268320 0.884150 -0.466854
O3    O     O_R   0.555150 0.560600 0.176460 -0.534299
O4    O     O_R   0.944950 0.731580 0.615800 -0.549466
O5    O     O_R   0.384220 0.439220 0.884170 -0.491240
O6    O     O_R   0.676580 0.439170 0.055020 -0.436499
O7    O     O_R   0.384230 0.560650 0.884170 -0.459332
O8    O     O_R   0.384260 0.731500 0.055040 -0.474179
O9    O     O_R   0.555100 0.268330 0.884160 -0.500263
O10   O     O_R   0.384250 0.560620 0.176470 -0.467952
O11   O     O_R   0.676570 0.439190 0.884150 -0.449460
O12   O     O_R   0.944910 0.439280 0.615800 -0.432679
O13   O     O_R   0.115780 0.268410 0.444920 -0.446404
O14   O     O_R   0.823470 0.560720 0.615800 -0.484354
O15   O     O_R   0.115800 0.439290 0.323490 -0.501141
O16   O     O_R   0.823460 0.560740 0.444930 -0.481460
O17   O     O_R   0.115830 0.560690 0.615790 -0.482820
O18   O     O_R   0.944900 0.439310 0.323490 -0.497672
O19   O     O_R   0.115810 0.439260 0.615790 -0.490296
O20   O     O_2   0.972792 0.443726 0.793030 -0.240907
O21   O     O_2   0.029263 0.401444 0.897539 -0.135742
O22   O     O_3   0.905902 0.592741 0.961215 -0.417970
O23   O     O_R   0.115820 0.560710 0.444920 -0.503803
O24   O     O_2   0.229777 0.795418 0.028845 -0.167119
O25   O     O_2   0.143258 0.957547 0.044004 -0.147646
O26   O     O_3   0.317047 0.848771 0.981260 -0.430673
O27   O     O_3   0.358173 0.884175 0.368019 -0.585461
O28   O     O_2   0.195724 0.069899 0.512662 -0.121439
O29   O     O_2   0.329329 0.064619 0.537917 -0.231194
O30   O     O_3   0.190738 0.232090 0.565698 -0.420914
O31   O     O_2   0.388714 0.055081 0.275435 -0.267204
O32   O     O_2   0.296216 0.212954 0.425682 -0.325676
O33   O     O_3   0.447165 0.062049 0.406591 -0.475870
O34   O     O_R   0.823500 0.731590 0.615800 -0.492635
O35   O     O_3   0.295312 0.306457 0.207935 -0.579070
O36   O     O_2   0.502393 0.281831 0.071303 -0.225283
O37   O     O_2   0.449641 0.190618 0.086522 -0.128606
O38   O     O_3   0.396740 0.253053 0.985040 -0.470252
O39   O     O_3   0.294647 0.669943 0.359411 -0.644101
O40   O     O_2   0.128423 0.885545 0.409185 -0.167061
O41   O     O_2   0.218951 0.763461 0.250679 -0.230651
O42   O     O_3   0.066251 0.794706 0.298194 -0.457252
O43   O     O_3   0.189864 0.673974 0.467256 -0.602668
O44   O     O_3   0.280342 0.436558 0.515108 -0.594877
O45   O     O_R   0.115770 0.268420 0.323490 -0.521100
O46   O     O_3   0.065265 0.763886 0.435009 -0.550140
O47   O     O_3   0.662684 0.906019 0.724975 -0.598305
O48   O     O_2   0.842390 0.222537 0.828547 -0.175610
O49   O     O_2   0.996395 0.074010 0.778738 -0.164365
O50   O     O_3   0.912220 0.066990 0.663198 -0.436291
O51   O     O_2   0.794479 0.219372 0.972443 -0.190419
O52   O     O_2   0.779491 0.084557 0.947107 -0.264000
O53   O     O_3   0.936882 0.050891 0.937816 -0.406835
O54   O     O_3   0.994338 0.889803 0.668593 -0.540324
O55   O     O_3   0.947950 0.883780 0.782795 -0.596581
O56   O     O_3   0.500040 0.499910 0.999960 -0.525123
O57   O     O_2   0.982277 0.469846 0.165776 -0.194638
O58   O     O_2   0.851415 0.643479 0.220211 -0.160559
O59   O     O_3   0.909721 0.611096 0.335872 -0.534303
O60   O     O_2   0.727909 0.563114 0.059954 -0.279651
O61   O     O_2   0.881290 0.501579 0.059948 -0.126193
O62   O     O_3   0.845235 0.369124 0.988557 -0.403914
O63   O     O_3   0.541295 0.551899 0.352746 -0.618085
O64   O     O_2   0.388194 0.564176 0.500606 -0.198216
O65   O     O_2   0.521824 0.387768 0.427767 -0.154090
O66   O     O_3   0.376652 0.414682 0.393426 -0.468937
O67   O     O_R   0.384230 0.439200 0.055040 -0.481856
O68   O     O_2   0.761273 0.292905 0.159493 -0.251374
O69   O     O_2   0.658553 0.307258 0.259929 -0.132771
O70   O     O_3   0.597280 0.368069 0.158720 -0.458032
O71   O     O_3   0.642914 0.559934 0.459053 -0.607905
O72   O     O_3   0.762672 0.391166 0.349380 -0.632957
O73   O     O_2   0.008824 0.250238 0.605367 -0.130002
O74   O     O_2   0.914363 0.190411 0.552252 -0.205232
O75   O     O_3   0.939258 0.278435 0.490370 -0.507998
O76   O     O_3   0.810261 0.313590 0.733686 -0.565380
O77   O     O_3   0.520046 0.738916 0.874907 -0.541073
O78   O     O_R   0.555130 0.560630 0.884160 -0.468156
O79   O     O_3   0.633684 0.713481 0.938492 -0.631561
O80   O     O_2   0.536213 0.714344 0.712266 -0.176176
O81   O     O_2   0.538205 0.863799 0.811423 -0.195156
O82   O     O_3   0.660229 0.721575 0.654784 -0.447237
O83   O     O_3   0.720369 0.719429 0.822111 -0.627881
O84   O     O_2   0.502969 0.556165 0.600578 -0.180190
O85   O     O_2   0.545850 0.510932 0.705587 -0.232202
O86   O     O_3   0.626172 0.364957 0.536861 -0.409438
O87   O     O_2   0.594441 0.265602 0.597963 -0.172064
O88   O     O_2   0.554454 0.383266 0.758070 -0.256622
O89   O     O_R   0.384270 0.731490 0.176470 -0.485640
O90   O     O_3   0.489082 0.276218 0.702655 -0.508057
O91   O     O_2   0.256209 0.611034 0.039866 -0.319866
O92   O     O_2   0.133367 0.722059 0.010185 -0.157299
O93   O     O_3   0.096313 0.664320 0.098293 -0.416321
O94   O     O_3   0.127835 0.474977 0.976317 -0.570033
O95   O     O_3   0.013316 0.565336 0.780811 -0.624314
O96   O     O_3   0.116622 0.111649 0.191600 -0.591739
S1    S     S_3+6 0.997189 0.479457 0.876346 0.173318
S2    S     S_3+6 0.807334 0.489882 0.071055 0.111862
S3    S     S_3+6 0.421336 0.457465 0.470717 0.150288
S4    S     S_3+6 0.666122 0.358075 0.219528 0.146738
S5    S     S_3+6 0.925909 0.274591 0.578956 0.098417
S6    S     S_3+6 0.595698 0.749545 0.742783 0.150165
S7    S     S_3+6 0.530121 0.475713 0.617676 0.145029
S8    S     S_3+6 0.519606 0.340425 0.685723 0.070271
S9    S     S_3+6 0.172344 0.631916 0.015925 0.068586
S10   S     S_3+6 0.227205 0.887571 0.053238 0.156466
S11   S     S_3+6 0.253492 0.103048 0.503656 0.172246
S12   S     S_3+6 0.357510 0.097893 0.372345 0.020455
S13   S     S_3+6 0.422849 0.277628 0.078745 0.121064
S14   S     S_3+6 0.157408 0.785601 0.324596 0.139378
S15   S     S_3+6 0.904910 0.107459 0.769556 0.166428
S16   S     S_3+6 0.839802 0.105475 0.918543 0.117457
S17   S     S_3+6 0.892941 0.561603 0.237356 0.116113
Zn1   Zn    Zn3+2 0.043370 0.413240 0.543370 1.108211
Zn2   Zn    Zn3+2 0.869870 0.586760 0.543380 1.063775
Zn3   Zn    Zn3+2 0.043360 0.413260 0.369880 1.049943
Zn4   Zn    Zn3+2 0.043390 0.586740 0.543370 1.022275
Zn5   Zn    Zn3+2 0.456670 0.586670 0.956580 1.158104
Zn6   Zn    Zn3+2 0.456680 0.586650 0.130080 1.085780
Zn7   Zn    Zn3+2 0.630180 0.413150 0.956570 1.169995
Zn8   Zn    Zn3+2 0.456650 0.413170 0.956580 1.122752

loop_
_geom_bond_atom_site_label_1
_geom_bond_atom_site_label_2
_ccdc_geom_bond_type
C25   C31   A    
O56   Zn5   S    
O75   S5    S    
O84   S7    D    
C23   C45   A    
O57   S17   D    
C27   C29   A    
C41   C42   S    
H31   O95   S    
C42   S4    S    
C35   C36   A    
C37   S17   S    
O6    Zn7   S    
H19   O72   S    
H16   O66   S    
H26   O83   S    
C7    C8    A    
C39   C41   A    
H27   O86   S    
C42   O63   S    
H30   O94   S    
C4    O45   A    
C12   C23   A    
O21   S1    D    
C26   C27   A    
C37   C38   A    
O18   Zn3   S    
C14   S11   S    
O69   S4    D    
C12   S8    S    
C36   C37   A    
C61   O44   S    
O91   S9    D    
C51   O79   S    
C30   C31   A    
C52   O19   A    
C56   C66   A    
C57   O8    A    
O65   S3    D    
O74   S5    D    
C54   O10   A    
C16   O14   A    
C59   O6    A    
O80   S6    D    
O56   Zn8   S    
H8    O50   S    
H2    O39   S    
C53   S6    S    
C18   C19   A    
O62   S2    S    
O68   S4    D    
C45   C60   S    
C60   O5    A    
O24   S10   D    
H21   O76   S    
O32   S12   D    
C32   S15   S    
C43   O71   S    
C44   C53   S    
C55   O78   A    
O2    Zn7   S    
C29   H12   S    
O67   Zn8   S    
C45   C56   A    
C8    C9    A    
O1    Zn2   S    
C22   O39   S    
O52   S16   D    
C58   O9    A    
C56   C64   A    
O10   Zn6   S    
H18   O71   S    
C35   C43   S    
C9    C10   A    
C61   C62   A    
C28   O23   A    
H9    O53   S    
H5    O44   S    
O58   S17   D    
H28   O90   S    
C13   C14   S    
H7    O47   S    
H3    O42   S    
O88   S8    D    
O60   S2    D    
C18   O35   S    
O28   S11   D    
C4    C7    S    
C16   O12   A    
C34   C65   A    
H14   O62   S    
C44   C46   A    
C50   C51   S    
O3    Zn6   S    
H23   O22   S    
O22   S1    S    
H15   O63   S    
C38   C39   A    
O48   S15   D    
C54   O67   A    
H34   O27   S    
O78   Zn5   S    
C47   S5    S    
O33   S12   S    
C1    O34   A    
C47   C48   A    
O11   Zn7   S    
C36   C40   S    
C10   C57   S    
O93   S9    S    
C5    O95   S    
H36   O33   S    
O37   S13   D    
C6    C11   A    
C12   C63   A    
O82   S6    S    
C30   C58   S    
C3    C5    A    
C25   C26   A    
C49   C55   S    
C28   O15   A    
C34   C61   A    
C59   O3    A    
C5    C64   A    
C57   O89   A    
C51   C53   S    
O7    Zn5   S    
O61   S2    D    
C62   C63   A    
H37   O35   S    
C6    C14   S    
C52   O17   A    
O9    Zn8   S    
C31   C32   S    
O89   Zn6   S    
C9    S10   S    
H29   O93   S    
C23   C34   A    
C39   C59   S    
O70   S4    S    
C17   C18   A    
C13   O27   S    
O13   Zn1   S    
H24   O79   S    
C66   S9    S    
O66   S3    S    
O42   S14   S    
C24   O46   S    
O36   S13   D    
H11   O55   S    
O92   S9    D    
O59   S17   S    
C20   C54   S    
C48   C49   A    
O56   Zn7   S    
O19   Zn1   S    
O34   Zn2   S    
O1    Zn1   S    
H6    O46   S    
C22   S14   S    
C1    C26   S    
C3    S1    S    
O1    Zn3   S    
H38   O38   S    
C4    O13   A    
O26   S10   S    
O5    Zn8   S    
C42   C43   S    
C16   C46   S    
C43   O72   S    
C48   O76   S    
C40   O18   A    
C33   O54   S    
C13   H1    S    
C44   C50   A    
C15   C17   A    
C46   C47   A    
C15   C24   S    
O53   S16   S    
C27   O47   S    
O30   S11   S    
H33   O26   S    
C40   O16   A    
C2    O94   S    
C17   C28   S    
O8    Zn5   S    
O81   S6    D    
H25   O82   S    
O38   S13   S    
H13   O59   S    
O50   S15   S    
C51   O77   S    
C24   O43   S    
C2    C66   A    
C6    C7    A    
C14   S12   S    
O90   S8    S    
O64   S3    D    
H32   O96   S    
O20   S1    D    
C64   C65   A    
C19   C20   A    
C2    C3    A    
C53   O83   S    
C60   O7    A    
H35   O30   S    
C32   C33   S    
O40   S14   D    
O4    Zn4   S    
C11   C13   S    
H22   O77   S    
O15   Zn3   S    
C55   O11   A    
O85   S7    D    
O16   Zn2   S    
O1    Zn4   S    
H10   O54   S    
H20   O75   S    
O49   S15   D    
O73   S5    D    
O31   S12   D    
C22   C24   S    
O87   S8    D    
O51   S16   D    
C35   C41   A    
C62   S3    S    
C8    O96   S    
C10   C11   A    
O23   Zn4   S    
C1    O4    A    
C29   C30   A    
O41   S14   D    
C32   S16   S    
O86   S7    S    
C15   C21   A    
O56   Zn6   S    
C20   C21   A    
O29   S11   D    
C49   C50   A    
C38   S2    S    
H17   O70   S    
C58   O2    A    
O14   Zn2   S    
O17   Zn4   S    
C63   S7    S    
H4    O43   S    
C19   S13   S    
O25   S10   D    
C21   C22   S    
O12   Zn1   S    
O45   Zn3   S    
C52   C65   S    
C33   O55   S    
C25   C33   S    
