data_mof_unit_pretest_1427.cif
_audit_creation_date              2012-12-11T15:36:41-0500
_audit_creation_method            fapswitch 2.2
_symmetry_space_group_name_H-M    P1
_symmetry_Int_Tables_number       1
_space_group_crystal_system       triclinic
_cell_length_a                    15.05353
_cell_length_b                    15.065218
_cell_length_c                    34.877066
_cell_angle_alpha                 91.439073
_cell_angle_beta                  91.959111
_cell_angle_gamma                 60.095412
_cell_volume                      6852.173006

loop_
_atom_site_label
_atom_site_type_symbol
_atom_type_description
_atom_site_fract_x
_atom_site_fract_y
_atom_site_fract_z
_atom_type_partial_charge
C1    C     C_R   0.610594 0.302602 0.444012 0.562060
C2    C     C_R   0.613098 0.082596 0.762067 -0.005443
C3    C     C_R   0.097582 0.761355 0.886104 0.344989
C4    C     C_R   0.123884 0.750459 0.847694 -0.074500
C5    C     C_R   0.117397 0.676555 0.824462 -0.094622
C6    C     C_R   0.090799 0.609115 0.840664 -0.093316
C7    C     C_R   0.064612 0.619296 0.878997 0.342865
C8    C     C_R   0.185370 0.579944 0.763493 -0.073126
C9    C     C_R   0.193618 0.577417 0.723866 -0.083000
C10   C     C_R   0.148181 0.668845 0.703043 0.040804
C11   C     C_R   0.094536 0.762959 0.722346 -0.072667
C12   C     C_R   0.085821 0.765497 0.762027 -0.078980
C13   C     C_R   0.597740 0.162182 0.787775 0.009001
C14   C     C_R   0.646316 0.757839 0.162273 0.387902
C15   C     C_R   0.131289 0.673956 0.782867 0.045373
C16   C     C_R   0.200516 0.725160 0.646055 -0.092836
C17   C     C_R   0.236685 0.706560 0.608856 0.330762
C18   C     C_R   0.190403 0.573694 0.601229 0.349089
C19   C     C_R   0.154779 0.592634 0.638496 -0.080381
C20   C     C_R   0.164121 0.664967 0.661640 -0.095165
C21   C     C_R   0.237032 0.626644 0.586732 0.026293
C22   C     C_R   0.672548 0.077235 0.905642 -0.032916
C23   C     C_R   0.600460 0.058234 0.885725 0.359508
C24   C     C_R   0.553953 0.186336 0.639472 -0.033245
C25   C     C_R   0.570995 0.090817 0.847895 0.419855
C26   C     C_R   0.824913 0.624681 0.161924 -0.068498
C27   C     C_R   0.556114 0.211908 0.601416 0.336171
C28   C     C_R   0.689568 0.252523 0.618944 0.336104
C29   C     C_R   0.686112 0.227863 0.656865 -0.094920
C30   C     C_R   0.616078 0.198065 0.667573 -0.064809
C31   C     C_R   0.621239 0.249193 0.591009 0.023072
C32   C     C_R   0.045675 0.739087 0.048613 0.560625
C33   C     C_R   0.735037 0.685664 0.182068 -0.001665
C34   C     C_R   0.747562 0.746540 0.064083 0.561806
C35   C     C_R   0.751510 0.040217 0.050801 0.571294
C36   C     C_R   0.016630 0.722367 0.939639 0.580574
C37   C     C_R   0.717128 0.729968 0.954863 0.572362
C38   C     C_R   0.828125 0.639137 0.122763 0.374042
C39   C     C_R   0.721224 0.024240 0.941969 0.591273
C40   C     C_R   0.763703 0.581976 0.240691 0.423641
C41   C     C_R   0.755732 0.576219 0.280144 -0.036697
C42   C     C_R   0.719043 0.664631 0.303326 -0.015149
C43   C     C_R   0.694626 0.758173 0.286690 -0.092637
C44   C     C_R   0.612652 0.143177 0.829487 -0.091565
C45   C     C_R   0.702576 0.764039 0.247271 -0.081615
C46   C     C_R   0.734773 0.676592 0.223930 0.065018
C47   C     C_R   0.601222 0.734288 0.358297 -0.110026
C48   C     C_R   0.593501 0.610264 0.449484 0.556383
C49   C     C_R   0.570813 0.720936 0.393945 -0.156857
C50   C     C_R   0.733113 0.563515 0.402400 0.394194
C51   C     C_R   0.763185 0.577204 0.366682 -0.059238
C52   C     C_R   0.696065 0.660546 0.343784 -0.029231
C53   C     C_R   0.634565 0.633392 0.415692 0.018643
C54   C     C_R   0.102360 0.729220 0.085173 0.013217
C55   C     C_R   0.677865 0.169163 0.850384 -0.148035
C56   C     C_R   0.151392 0.635050 0.104610 0.426070
C57   C     C_R   0.174066 0.632468 0.143767 -0.039498
C58   C     C_R   0.150398 0.722864 0.163901 -0.039614
C59   C     C_R   0.112540 0.814751 0.143939 -0.090801
C60   C     C_R   0.303911 0.591362 0.442314 0.569837
C61   C     C_R   0.088594 0.817981 0.104736 -0.157308
C62   C     C_R   0.219222 0.748002 0.226879 -0.045694
C63   C     C_R   0.227999 0.738314 0.266790 0.348965
C64   C     C_R   0.170189 0.704113 0.286226 0.060865
C65   C     C_R   0.100530 0.684117 0.265290 0.416415
C66   C     C_R   0.707534 0.136829 0.888054 0.339787
C67   C     C_R   0.093380 0.692269 0.225465 -0.058316
C68   C     C_R   0.154072 0.722210 0.206034 -0.079981
C69   C     C_R   0.218670 0.581853 0.340399 0.422713
C70   C     C_R   0.248385 0.555906 0.378621 -0.144777
C71   C     C_R   0.216955 0.727744 0.392191 0.373813
C72   C     C_R   0.605672 0.300709 0.553838 0.587639
C73   C     C_R   0.186102 0.753985 0.353933 -0.076597
C74   C     C_R   0.189330 0.680649 0.327565 0.029890
C75   C     C_R   0.251288 0.627211 0.404641 -0.035577
C76   C     C_R   0.724190 0.098877 0.087179 -0.095730
C77   C     C_R   0.580821 0.255551 0.773296 -0.123228
C78   C     C_R   0.795777 0.116967 0.107900 0.400224
C79   C     C_R   0.779751 0.147095 0.146394 0.429859
C80   C     C_R   0.691990 0.160345 0.164447 0.036807
C81   C     C_R   0.616300 0.151614 0.142928 0.372701
C82   C     C_R   0.632226 0.121524 0.104567 -0.151826
C83   C     C_R   0.601507 0.257908 0.222884 0.424744
C84   C     C_R   0.587641 0.606470 0.559094 0.545108
C85   C     C_R   0.591468 0.264880 0.262576 -0.070799
C86   C     C_R   0.663833 0.186131 0.286246 -0.091278
C87   C     C_R   0.746821 0.100421 0.269669 -0.086262
C88   C     C_R   0.584159 0.267473 0.734003 -0.165992
C89   C     C_R   0.756945 0.093023 0.229968 0.380452
C90   C     C_R   0.684305 0.171877 0.206356 0.109481
C91   C     C_R   0.740005 0.177536 0.351594 -0.057803
C92   C     C_R   0.728098 0.204084 0.390437 0.407827
C93   C     C_R   0.546713 0.260230 0.383672 -0.175113
C94   C     C_R   0.558847 0.234146 0.344875 -0.122511
C95   C     C_R   0.654692 0.196563 0.328245 -0.028942
C96   C     C_R   0.297780 0.589473 0.551707 0.584259
C97   C     C_R   0.630115 0.250099 0.406430 0.024118
C98   C     C_R   0.691443 0.690167 0.919521 -0.050680
C99   C     C_R   0.603697 0.186577 0.708493 0.030812
C100  C     C_R   0.764130 0.596425 0.902906 0.402185
C101  C     C_R   0.751702 0.573828 0.864725 -0.125181
C102  C     C_R   0.666557 0.643353 0.842685 -0.009607
C103  C     C_R   0.589329 0.732231 0.860224 0.454930
C104  C     C_R   0.601450 0.754784 0.898411 -0.105664
C105  C     C_R   0.579600 0.636397 0.780935 0.449955
C106  C     C_R   0.576057 0.634921 0.740903 -0.143276
C107  C     C_R   0.658228 0.626316 0.720055 0.002611
C108  C     C_R   0.740701 0.715641 0.103195 -0.039260
C109  C     C_R   0.745352 0.616880 0.739723 0.453639
C110  C     C_R   0.615470 0.094806 0.722610 0.403196
C111  C     C_R   0.748760 0.618737 0.779755 -0.133814
C112  C     C_R   0.665461 0.630051 0.800649 0.001390
C113  C     C_R   0.722682 0.545738 0.655864 0.458191
C114  C     C_R   0.706654 0.542714 0.616282 -0.056151
C115  C     C_R   0.551411 0.707854 0.619944 -0.108634
C116  C     C_R   0.567182 0.710763 0.659452 -0.156208
C117  C     C_R   0.651032 0.628491 0.677829 0.058273
C118  C     C_R   0.618764 0.621891 0.598176 -0.050331
C119  C     C_R   0.064091 0.698154 0.901804 0.022786
C120  C     C_R   0.649226 0.772456 0.123179 -0.121218
Cr1   Cr    Cr6+3 0.426010 0.422500 0.497000 1.135556
Cr2   Cr    Cr6+3 0.651300 0.426310 0.501970 1.181463
Cr3   Cr    Cr6+3 0.422670 0.651170 0.501050 1.161165
Cr4   Cr    Cr6+3 0.905130 0.911420 0.992650 1.181356
Cr5   Cr    Cr6+3 0.911860 0.682710 0.002320 1.237639
Cr6   Cr    Cr6+3 0.682710 0.906840 0.004710 1.105471
F1    F     F_    0.798883 0.479533 0.422959 -0.568052
F2    F     F_    0.852347 0.158159 0.166655 -0.515482
F3    F     F_    0.836049 0.007682 0.214502 -0.609152
F4    F     F_    0.811335 0.190017 0.411673 -0.557111
F5    F     F_    0.530923 0.163811 0.159828 -0.543581
F6    F     F_    0.850599 0.529671 0.922538 -0.522678
F7    F     F_    0.499330 0.644256 0.800371 -0.567599
F8    F     F_    0.825079 0.610167 0.720255 -0.558565
F9    F     F_    0.803746 0.464468 0.673009 -0.550848
F10   F     F_    0.507000 0.802203 0.839514 -0.513932
F11   F     F_    0.101651 0.835956 0.907430 -0.564334
F12   F     F_    0.170222 0.546654 0.086564 -0.537837
F13   F     F_    0.794169 0.496491 0.218690 -0.575934
F14   F     F_    0.032888 0.556429 0.892726 -0.546504
F15   F     F_    0.278461 0.761601 0.595955 -0.599087
F16   F     F_    0.557295 0.815420 0.180928 -0.581249
F17   F     F_    0.184263 0.499598 0.580324 -0.557573
F18   F     F_    0.563501 0.002359 0.901764 -0.563030
F19   F     F_    0.774176 0.160126 0.906615 -0.548830
F20   F     F_    0.504238 0.068442 0.828890 -0.540867
F21   F     F_    0.635444 0.015132 0.698539 -0.604514
F22   F     F_    0.490954 0.204870 0.575261 -0.570003
F23   F     F_    0.296949 0.756885 0.286137 -0.607677
F24   F     F_    0.754340 0.287125 0.610510 -0.582402
F25   F     F_    0.040781 0.654984 0.283334 -0.575611
F26   F     F_    0.918351 0.582095 0.104800 -0.549613
F27   F     F_    0.225712 0.508123 0.315428 -0.564295
F28   F     F_    0.216635 0.799650 0.416525 -0.572983
F29   F     F_    0.884623 0.098381 0.092025 -0.545679
F30   F     F_    0.531030 0.335280 0.200619 -0.551585
H1    H     H_    0.580626 0.831170 0.108893 0.192603
H2    H     H_    0.547717 0.798961 0.341067 0.165486
H3    H     H_    0.893883 0.568636 0.176879 0.203413
H4    H     H_    0.051260 0.891513 0.090636 0.212574
H5    H     H_    0.162624 0.830783 0.344568 0.196122
H6    H     H_    0.266138 0.771540 0.212115 0.189112
H7    H     H_    0.041192 0.674087 0.209624 0.159538
H8    H     H_    0.275383 0.477727 0.387172 0.171730
H9    H     H_    0.575321 0.109335 0.089253 0.198837
H10   H     H_    0.492399 0.247448 0.327479 0.170128
H11   H     H_    0.528023 0.332702 0.274888 0.173631
H12   H     H_    0.494860 0.776332 0.403400 0.185199
H13   H     H_    0.837556 0.520541 0.356261 0.167684
H14   H     H_    0.814808 0.148024 0.339316 0.160331
H15   H     H_    0.470453 0.294840 0.395122 0.158739
H16   H     H_    0.543877 0.827116 0.910367 0.232872
H17   H     H_    0.511698 0.775542 0.675974 0.164987
H18   H     H_    0.773390 0.503552 0.292261 0.152109
H19   H     H_    0.508961 0.640734 0.726060 0.143865
H20   H     H_    0.811302 0.504366 0.851709 0.180705
H21   H     H_    0.815079 0.614973 0.794498 0.154148
H22   H     H_    0.482990 0.770094 0.606920 0.207311
H23   H     H_    0.205203 0.560631 0.158868 0.189015
H24   H     H_    0.124283 0.547358 0.649947 0.186762
H25   H     H_    0.237570 0.504076 0.709554 0.125566
H26   H     H_    0.221957 0.508523 0.779043 0.134367
H27   H     H_    0.146769 0.801574 0.835821 0.185561
H28   H     H_    0.207890 0.781660 0.663575 0.164579
H29   H     H_    0.084774 0.551875 0.823133 0.170956
H30   H     H_    0.735695 0.235692 0.678285 0.179840
H31   H     H_    0.573561 0.339291 0.723492 0.136887
H32   H     H_    0.568208 0.318166 0.792511 0.153171
H33   H     H_    0.628635 0.009085 0.772614 0.188369
H34   H     H_    0.094311 0.885128 0.159182 0.202217
H35   H     H_    0.499984 0.162600 0.647358 0.202686
H36   H     H_    0.710801 0.209664 0.836839 0.178099
H37   H     H_    0.681839 0.837254 0.234823 0.176430
H38   H     H_    0.803032 0.038686 0.287436 0.157548
H39   H     H_    0.759724 0.475384 0.600275 0.209926
H40   H     H_    0.059052 0.834212 0.706697 0.137194
H41   H     H_    0.042064 0.838835 0.776342 0.127119
H42   H     H_    0.667245 0.827060 0.304066 0.139579
O1    O     O_R   0.324990 0.503440 0.453910 -0.522362
O2    O     O_R   0.675430 0.831160 0.051290 -0.525952
O3    O     O_R   0.698870 0.998880 0.039560 -0.519741
O4    O     O_R   0.522030 0.339050 0.458320 -0.523668
O5    O     O_R   0.811290 0.006780 0.950620 -0.425005
O6    O     O_R   0.980960 0.812920 0.953200 -0.454486
O7    O     O_R   0.001480 0.656720 0.955830 -0.419658
O8    O     O_R   0.809240 0.683250 0.968050 -0.421581
O9    O     O_R   0.652500 0.818540 0.967340 -0.488161
O10   O     O_R   0.677620 0.987170 0.961730 -0.449893
O11   O     O_3   0.833240 0.833660 0.999890 -0.333264
O12   O     O_R   0.639980 0.519500 0.542640 -0.495897
O13   O     O_R   0.676180 0.324490 0.458320 -0.409786
O14   O     O_R   0.643570 0.521510 0.464260 -0.430056
O15   O     O_R   0.504630 0.675350 0.460920 -0.507297
O16   O     O_R   0.339850 0.642450 0.459830 -0.429633
O17   O     O_R   0.321120 0.501280 0.538470 -0.428527
O18   O     O_R   0.518440 0.337050 0.536710 -0.448694
O19   O     O_R   0.672300 0.322330 0.542880 -0.439619
O20   O     O_R   0.500750 0.673190 0.545480 -0.472246
O21   O     O_R   0.336260 0.640450 0.538210 -0.440499
O22   O     O_3   0.499990 0.499990 0.500010 -0.324936
O23   O     O_R   0.834210 0.019400 0.034570 -0.420718
O24   O     O_R   0.002210 0.824620 0.031030 -0.513149
O25   O     O_R   0.024400 0.669340 0.039790 -0.404219
O26   O     O_R   0.830490 0.694950 0.045870 -0.421646

loop_
_geom_bond_atom_site_label_1
_geom_bond_atom_site_label_2
_ccdc_geom_bond_type
C8    C9    A    
C79   F2    S    
C14   F16   S    
C41   C42   A    
C28   F24   S    
C93   C94   A    
Cr2   O19   S    
C39   O5    A    
C1    O13   A    
C18   C21   A    
C37   O9    A    
C37   O8    A    
C108  C120  A    
C102  C112  S    
C111  C112  A    
C2    H33   S    
C41   H18   S    
C94   H10   S    
C14   C33   A    
C81   C82   A    
C47   C49   A    
C85   C86   A    
C56   C57   A    
C40   C46   A    
C72   O19   A    
C88   C99   A    
C6    H29   S    
C101  C102  A    
C96   O17   A    
Cr2   O22   S    
C116  H17   S    
Cr4   O6    S    
C24   C27   A    
Cr1   O17   S    
C55   H36   S    
C28   C29   A    
C76   C78   A    
Cr1   O4    S    
C69   C70   A    
C109  C111  A    
C5    C6    A    
C84   O12   A    
C78   F29   S    
C81   F5    S    
Cr4   O11   S    
C8    H26   S    
C115  C116  A    
C40   F13   S    
Cr5   O8    S    
C89   F3    S    
C116  C117  A    
C17   F15   S    
C18   C19   A    
C73   C74   A    
C38   F26   S    
C36   C119  S    
C2    C13   A    
C60   O16   A    
C22   C66   A    
C66   F19   S    
C73   H5    S    
C103  C104  A    
C60   O1    A    
C88   H31   S    
Cr1   O1    S    
C48   O14   A    
C77   C88   A    
Cr6   O10   S    
C27   F22   S    
C65   C67   A    
C12   H41   S    
Cr2   O12   S    
C25   F20   S    
C3    F11   S    
C43   H42   S    
C29   C30   A    
C9    C10   A    
C104  H16   S    
C63   C64   A    
C80   C90   S    
C33   C46   S    
C107  C109  A    
C94   C95   A    
C1    O4    A    
C25   C44   A    
C32   C54   S    
C37   C98   S    
C34   O26   A    
C92   C97   A    
C54   C61   A    
C6    C7    A    
C13   C77   A    
Cr5   O25   S    
Cr6   O3    S    
C45   H37   S    
C48   C53   S    
C54   C56   A    
C35   C76   S    
C59   C61   A    
C50   C53   A    
C29   H30   S    
Cr4   O5    S    
C27   C31   A    
C67   C68   A    
C85   H11   S    
Cr1   O18   S    
C7    C119  A    
C51   H13   S    
C11   H40   S    
C49   H12   S    
C10   C11   A    
C61   H4    S    
C10   C20   S    
C91   C92   A    
C57   H23   S    
Cr5   O11   S    
C86   C87   A    
C16   C17   A    
C83   F30   S    
C58   C59   A    
C45   C46   A    
C71   F28   S    
C30   C99   S    
C17   C21   A    
C51   C52   A    
C65   F25   S    
C92   F4    S    
C103  F10   S    
C62   C63   A    
C34   O2    A    
C56   F12   S    
C26   C33   A    
C49   C53   A    
C12   C15   A    
C1    C97   S    
Cr6   O9    S    
C16   C20   A    
C115  C118  A    
C39   O10   A    
C16   H28   S    
C50   C51   A    
C26   H3    S    
C43   C45   A    
C114  C118  A    
C3    C119  A    
C113  C117  A    
C58   C68   S    
C31   C72   S    
C72   O18   A    
Cr3   O20   S    
Cr4   O24   S    
C8    C15   A    
C98   C100  A    
C87   C89   A    
C113  F9    S    
C120  H1    S    
Cr1   O22   S    
Cr2   O14   S    
C23   F18   S    
C24   C30   A    
C42   C43   A    
C76   C82   A    
C3    C4    A    
C93   H15   S    
C93   C97   A    
C69   C74   A    
C32   O25   A    
Cr3   O22   S    
C105  F7    S    
C113  C114  A    
Cr5   O26   S    
Cr6   O2    S    
C83   C90   A    
Cr3   O21   S    
C48   O15   A    
C18   F17   S    
C91   H14   S    
C83   C85   A    
C109  F8    S    
C78   C79   A    
C105  C112  A    
C28   C31   A    
C35   O3    A    
C87   H38   S    
C80   C81   A    
C101  H20   S    
Cr6   O11   S    
C70   H8    S    
C106  H19   S    
C32   O24   A    
C11   C12   A    
C100  F6    S    
C47   C52   A    
C84   O20   A    
C21   C96   S    
C96   O21   A    
C105  C106  A    
C60   C75   S    
C14   C120  A    
C62   C68   A    
C26   C38   A    
C64   C65   A    
C19   C20   A    
Cr3   O15   S    
C34   C108  S    
C35   O23   A    
C71   C75   A    
C99   C110  A    
C44   C55   A    
C57   C58   A    
C62   H6    S    
C98   C104  A    
C22   C39   S    
Cr5   O7    S    
C100  C101  A    
C24   H35   S    
C22   C23   A    
C36   O7    A    
C23   C25   A    
C4    H27   S    
C38   C108  A    
C102  C103  A    
C47   H2    S    
C69   F27   S    
C5    C15   S    
C115  H22   S    
C9    H25   S    
C86   C95   S    
C91   C95   A    
C79   C80   A    
C67   H7    S    
C7    F14   S    
C4    C5    A    
Cr4   O23   S    
C84   C118  S    
C106  C107  A    
Cr3   O16   S    
C71   C73   A    
C70   C75   A    
C111  H21   S    
C77   H32   S    
C64   C74   S    
Cr2   O13   S    
C59   H34   S    
C40   C41   A    
C50   F1    S    
C36   O6    A    
C63   F23   S    
C89   C90   A    
C19   H24   S    
C107  C117  S    
C13   C44   S    
C110  F21   S    
C114  H39   S    
C42   C52   S    
C55   C66   A    
C82   H9    S    
C2    C110  A    
