data_mof_unit_pretest_1575.cif
_audit_creation_date              2012-12-10T19:18:36-0500
_audit_creation_method            fapswitch 2.2
_symmetry_space_group_name_H-M    P1
_symmetry_Int_Tables_number       1
_space_group_crystal_system       triclinic
_cell_length_a                    24.473111
_cell_length_b                    24.473119
_cell_length_c                    36.290705
_cell_angle_alpha                 90.000302
_cell_angle_beta                  89.996065
_cell_angle_gamma                 90.0
_cell_volume                      21735.7137511

loop_
_atom_site_label
_atom_site_type_symbol
_atom_type_description
_atom_site_fract_x
_atom_site_fract_y
_atom_site_fract_z
_atom_type_partial_charge
C1    C     C_R   0.728658 0.228688 0.249982 0.113511
C2    C     C_R   0.271346 0.228695 0.249976 0.113683
C3    C     C_R   0.723802 0.807473 0.220121 -0.180904
C4    C     C_R   0.807504 0.276167 0.779866 -0.181065
C5    C     C_R   0.176582 0.739737 0.235536 -0.181068
C6    C     C_R   0.739714 0.823396 0.764496 -0.181060
C7    C     C_R   0.276217 0.192528 0.220091 -0.180905
C8    C     C_R   0.176616 0.260289 0.235493 -0.181127
C9    C     C_R   0.807494 0.723815 0.779891 -0.180952
C10   C     C_R   0.276165 0.807511 0.220133 -0.181138
C11   C     C_R   0.739737 0.176580 0.764462 -0.181083
C12   C     C_R   0.823404 0.739721 0.235499 -0.180804
C13   C     C_R   0.771344 0.271306 0.749978 0.113675
C14   C     C_R   0.192540 0.276221 0.779892 -0.180831
C15   C     C_R   0.723752 0.192563 0.220076 -0.180682
C16   C     C_R   0.260311 0.823361 0.764554 -0.180858
C17   C     C_R   0.652058 0.183815 0.279762 -0.189352
C18   C     C_R   0.363480 0.800649 0.735235 -0.190316
C19   C     C_R   0.800666 0.636548 0.264797 -0.190260
C20   C     C_R   0.183796 0.347928 0.720216 -0.189370
C21   C     C_R   0.347986 0.816139 0.279750 -0.189944
C22   C     C_R   0.636523 0.199357 0.735251 -0.190832
C23   C     C_R   0.199369 0.363498 0.264725 -0.190916
C24   C     C_R   0.228662 0.728686 0.250017 0.113715
C25   C     C_R   0.816129 0.652006 0.720264 -0.189947
C26   C     C_R   0.636501 0.800628 0.735277 -0.190793
C27   C     C_R   0.347985 0.183868 0.279735 -0.189956
C28   C     C_R   0.816168 0.347967 0.720236 -0.189384
C29   C     C_R   0.199354 0.636518 0.264745 -0.190436
C30   C     C_R   0.363453 0.199332 0.735203 -0.190402
C31   C     C_R   0.652068 0.816207 0.279785 -0.189374
C32   C     C_R   0.183837 0.652045 0.720250 -0.189927
C33   C     C_R   0.800646 0.363476 0.264766 -0.190736
C34   C     C_R   0.152069 0.683792 0.779786 -0.189376
C35   C     C_R   0.271306 0.228660 0.749977 0.113798
C36   C     C_R   0.863454 0.300667 0.235205 -0.190407
C37   C     C_R   0.300646 0.136524 0.764767 -0.190734
C38   C     C_R   0.683838 0.847956 0.220250 -0.189938
C39   C     C_R   0.847986 0.316131 0.779735 -0.189959
C40   C     C_R   0.136501 0.699372 0.235278 -0.190789
C41   C     C_R   0.699354 0.863482 0.764745 -0.190447
C42   C     C_R   0.316172 0.152036 0.220233 -0.189388
C43   C     C_R   0.136525 0.300644 0.235248 -0.190839
C44   C     C_R   0.847986 0.683861 0.779750 -0.189936
C45   C     C_R   0.316128 0.847995 0.220265 -0.189931
C46   C     C_R   0.728698 0.771350 0.250028 0.113648
C47   C     C_R   0.699369 0.136501 0.764723 -0.190920
C48   C     C_R   0.863480 0.699351 0.235237 -0.190308
C49   C     C_R   0.152058 0.316186 0.779762 -0.189354
C50   C     C_R   0.683798 0.152070 0.220218 -0.189370
C51   C     C_R   0.300666 0.863452 0.764797 -0.190247
C52   C     C_R   0.647564 0.147572 0.249993 0.000329
C53   C     C_R   0.352437 0.852423 0.750010 0.001210
C54   C     C_R   0.852437 0.647577 0.250011 0.001214
C55   C     C_R   0.147563 0.352428 0.749993 0.000334
C56   C     C_R   0.352428 0.852433 0.250005 0.000837
C57   C     C_R   0.228698 0.728650 0.750028 0.113651
C58   C     C_R   0.647574 0.147564 0.749992 0.001354
C59   C     C_R   0.147575 0.352436 0.249991 0.001351
C60   C     C_R   0.852428 0.647567 0.750005 0.000838
C61   C     C_R   0.647562 0.852426 0.750007 0.001330
C62   C     C_R   0.352442 0.147579 0.249989 0.000606
C63   C     C_R   0.852441 0.352421 0.749990 0.000595
C64   C     C_R   0.147562 0.647574 0.250007 0.001321
C65   C     C_R   0.352422 0.147562 0.749991 0.001243
C66   C     C_R   0.647580 0.852444 0.250013 0.000591
C67   C     C_R   0.147580 0.647556 0.750013 0.000596
C68   C     C_R   0.771307 0.271338 0.249978 0.113803
C69   C     C_R   0.852422 0.352437 0.249991 0.001253
C70   C     C_3   0.603628 0.993490 0.041270 -0.389081
C71   C     C_3   0.623672 0.049858 0.053220 -0.863002
C72   C     C_3   0.396374 0.006616 0.958740 -0.389650
C73   C     C_3   0.376296 0.950249 0.946813 -0.859737
C74   C     C_3   0.010136 0.603344 0.041262 -0.389714
C75   C     C_3   0.954485 0.625327 0.053193 -0.859609
C76   C     C_3   0.989963 0.396653 0.958729 -0.389177
C77   C     C_3   0.045617 0.374701 0.946775 -0.862822
C78   C     C_3   0.396187 0.998827 0.041294 -0.388970
C79   C     C_1   0.500000 0.999552 0.111744 -0.163868
C80   C     C_3   0.379072 0.056151 0.053249 -0.863404
C81   C     C_3   0.603815 0.001278 0.958715 -0.389549
C82   C     C_3   0.620964 0.943953 0.946785 -0.860187
C83   C     C_3   0.997742 0.396206 0.041283 -0.389504
C84   C     C_3   0.939866 0.381019 0.053215 -0.860380
C85   C     C_3   0.002355 0.603790 0.958708 -0.388914
C86   C     C_3   0.060229 0.618947 0.946751 -0.863629
C87   C     C_3   0.103790 0.502739 0.541277 -0.389002
C88   C     C_3   0.121768 0.445678 0.553228 -0.863265
C89   C     C_3   0.896209 0.497163 0.458733 -0.389586
C90   C     C_1   0.500000 0.000471 0.888259 -0.161719
C91   C     C_3   0.878199 0.554224 0.446805 -0.860007
C92   C     C_3   0.500304 0.103822 0.541280 -0.389547
C93   C     C_3   0.442820 0.120432 0.553212 -0.860184
C94   C     C_3   0.499796 0.896181 0.458711 -0.388958
C95   C     C_3   0.557278 0.879602 0.446754 -0.863448
C96   C     C_3   0.896294 0.504953 0.541287 -0.389060
C97   C     C_3   0.877101 0.448290 0.553240 -0.863141
C98   C     C_3   0.103705 0.494947 0.458722 -0.389628
C99   C     C_3   0.122930 0.551610 0.446792 -0.859913
C100  C     C_3   0.507586 0.896442 0.541265 -0.389674
C101  C     C_1   0.000470 0.499989 0.111741 -0.161717
C102  C     C_3   0.451410 0.875838 0.553196 -0.859770
C103  C     C_3   0.492517 0.103560 0.458726 -0.389120
C104  C     C_3   0.548695 0.124131 0.446772 -0.862984
C105  C     C_R   0.271345 0.771302 0.750029 0.113731
C106  C     C_1   0.999553 0.500011 0.888256 -0.163865
C107  C     C_1   0.000006 0.500448 0.611744 -0.163867
C108  C     C_1   0.999994 0.499529 0.388259 -0.161720
C109  C     C_1   0.500471 0.000006 0.611741 -0.161719
C110  C     C_1   0.499553 0.999994 0.388256 -0.163866
C111  C     C_R   0.050402 0.498315 0.480457 0.108569
C112  C     C_R   0.949597 0.501597 0.519550 0.109148
C113  C     C_R   0.497174 0.050352 0.480456 0.109156
C114  C     C_R   0.502916 0.949650 0.519537 0.108567
C115  C     C_R   0.949573 0.499392 0.480462 0.108560
C116  C     C_R   0.771345 0.728698 0.250029 0.113731
C117  C     C_R   0.050427 0.500520 0.519545 0.109131
C118  C     C_R   0.500712 0.949578 0.480449 0.109130
C119  C     C_R   0.499378 0.050423 0.519544 0.108566
C120  C     C_R   0.550427 0.999851 0.980453 0.108577
C121  C     C_R   0.449574 0.000240 0.019553 0.109142
C122  C     C_R   0.001954 0.550388 0.980447 0.109131
C123  C     C_R   0.998133 0.449609 0.019546 0.108577
C124  C     C_R   0.449624 0.002445 0.980465 0.108549
C125  C     C_R   0.550377 0.997647 0.019541 0.109137
C126  C     C_R   0.995932 0.449732 0.980458 0.109163
C127  C     C_R   0.228657 0.271311 0.749980 0.113515
C128  C     C_R   0.004155 0.550265 0.019535 0.108564
C129  C     C_R   0.999986 0.498684 0.461306 0.008707
C130  C     C_R   0.000014 0.501240 0.538700 0.008687
C131  C     C_R   0.498761 0.999962 0.461300 0.008690
C132  C     C_R   0.501317 0.000040 0.538694 0.008709
C133  C     C_R   0.500027 0.001318 0.961306 0.008702
C134  C     C_R   0.499974 0.998762 0.038700 0.008686
C135  C     C_R   0.998762 0.500066 0.961300 0.008688
C136  C     C_R   0.001314 0.499932 0.038694 0.008709
C137  C     C_R   0.499970 1.000000 0.348865 0.819851
C138  C     C_R   0.271313 0.771335 0.250014 0.113790
C139  C     C_R   0.500031 0.000000 0.651133 0.822252
C140  C     C_R   0.999998 0.499969 0.348867 0.822249
C141  C     C_R   0.000002 0.500030 0.651134 0.819848
C142  C     C_R   0.999970 0.500001 0.848866 0.819856
C143  C     C_R   0.000031 0.499999 0.151133 0.822256
C144  C     C_R   0.499999 0.000031 0.848867 0.822250
C145  C     C_R   0.500001 0.999970 0.151134 0.819849
C146  C     C_R   0.605236 0.894770 0.250003 0.785636
C147  C     C_R   0.394765 0.105232 0.749998 0.784318
C148  C     C_R   0.105231 0.605234 0.250001 0.784243
C149  C     C_R   0.728692 0.228658 0.749977 0.113770
C150  C     C_R   0.894770 0.394765 0.749998 0.785585
C151  C     C_R   0.394770 0.105235 0.249998 0.785598
C152  C     C_R   0.605231 0.894766 0.750001 0.784256
C153  C     C_R   0.894765 0.394768 0.249998 0.784332
C154  C     C_R   0.105236 0.605230 0.750003 0.785651
C155  C     C_R   0.605233 0.105232 0.749999 0.783921
C156  C     C_R   0.394767 0.894767 0.250001 0.785223
C157  C     C_R   0.105232 0.394767 0.749999 0.786011
C158  C     C_R   0.894767 0.605234 0.250001 0.784652
C159  C     C_R   0.394767 0.894766 0.750001 0.784653
C160  C     C_R   0.228694 0.271343 0.249975 0.113771
C161  C     C_R   0.605232 0.105233 0.249999 0.786012
C162  C     C_R   0.894767 0.605233 0.750001 0.785223
C163  C     C_R   0.105233 0.394768 0.249999 0.783922
C164  C     C_1   0.999989 0.499084 0.421414 -0.031828
C165  C     C_1   0.000010 0.500869 0.578590 -0.032129
C166  C     C_1   0.499132 0.999980 0.421410 -0.032124
C167  C     C_1   0.500916 0.000020 0.578586 -0.031822
C168  C     C_1   0.500011 0.000916 0.921414 -0.031824
C169  C     C_1   0.499990 0.999132 0.078590 -0.032124
C170  C     C_1   0.999132 0.500035 0.921410 -0.032114
C171  C     C_R   0.771313 0.728665 0.750014 0.113792
C172  C     C_1   0.000914 0.499964 0.078586 -0.031811
C173  C     C_R   0.692541 0.223779 0.279893 -0.180830
C174  C     C_R   0.323403 0.760279 0.735498 -0.180813
C175  C     C_R   0.760311 0.676639 0.264553 -0.180874
C176  C     C_R   0.223749 0.307434 0.720074 -0.180690
C177  C     C_R   0.307494 0.776185 0.279891 -0.180955
C178  C     C_R   0.676613 0.239713 0.735496 -0.181127
C179  C     C_R   0.239737 0.323420 0.264464 -0.181091
C180  C     C_R   0.776166 0.692489 0.720132 -0.181145
C181  C     C_R   0.676582 0.760263 0.735536 -0.181065
C182  C     C_R   0.728662 0.771314 0.750017 0.113721
C183  C     C_R   0.307502 0.223832 0.279866 -0.181065
C184  C     C_R   0.776212 0.307476 0.720094 -0.180898
C185  C     C_R   0.239714 0.676604 0.264495 -0.181044
C186  C     C_R   0.323364 0.239689 0.735449 -0.180910
C187  C     C_R   0.692562 0.776254 0.279929 -0.180782
C188  C     C_R   0.223801 0.692527 0.720121 -0.180895
C189  C     C_R   0.760280 0.323395 0.264508 -0.180907
C190  C     C_R   0.192563 0.723745 0.779930 -0.180786
C191  C     C_R   0.823366 0.260309 0.235451 -0.180913
C192  C     C_R   0.260280 0.176604 0.764508 -0.180912
H1    H     H_    0.695967 0.250360 0.303628 0.129389
H2    H     H_    0.304105 0.250447 0.303586 0.129147
H3    H     H_    0.087338 0.623402 0.971090 0.249976
H4    H     H_    0.077314 0.587061 0.928285 0.266540
H5    H     H_    0.059395 0.658332 0.931577 0.247607
H6    H     H_    0.975901 0.600594 0.933937 0.209197
H7    H     H_    0.984116 0.637984 0.974463 0.206429
H8    H     H_    0.090764 0.427051 0.571699 0.266758
H9    H     H_    0.127540 0.418819 0.528887 0.249839
H10   H     H_    0.161070 0.448442 0.568394 0.247635
H11   H     H_    0.137044 0.522633 0.525517 0.206434
H12   H     H_    0.099305 0.529005 0.566049 0.208988
H13   H     H_    0.749603 0.304085 0.696372 0.129390
H14   H     H_    0.872426 0.581064 0.471155 0.249095
H15   H     H_    0.909188 0.572878 0.428335 0.267213
H16   H     H_    0.838892 0.551453 0.431646 0.248619
H17   H     H_    0.900704 0.470921 0.433949 0.210073
H18   H     H_    0.862971 0.477234 0.474488 0.206647
H19   H     H_    0.415848 0.125553 0.528864 0.249156
H20   H     H_    0.424928 0.088995 0.571679 0.267087
H21   H     H_    0.444631 0.159793 0.568376 0.248652
H22   H     H_    0.526647 0.099965 0.566062 0.210183
H23   H     H_    0.519415 0.137539 0.525527 0.206642
H24   H     H_    0.279757 0.666565 0.275215 0.129339
H25   H     H_    0.575143 0.911055 0.428286 0.266651
H26   H     H_    0.584270 0.874483 0.471092 0.249906
H27   H     H_    0.555473 0.840248 0.431582 0.247619
H28   H     H_    0.480720 0.862448 0.474467 0.206431
H29   H     H_    0.473428 0.900027 0.433940 0.209098
H30   H     H_    0.870757 0.421560 0.528900 0.249802
H31   H     H_    0.907701 0.429005 0.571708 0.266856
H32   H     H_    0.837868 0.451892 0.568411 0.247621
H33   H     H_    0.901338 0.531118 0.566060 0.208879
H34   H     H_    0.863471 0.525553 0.525532 0.206427
H35   H     H_    0.333384 0.279715 0.724688 0.129363
H36   H     H_    0.092346 0.570922 0.428325 0.267327
H37   H     H_    0.129275 0.578321 0.471141 0.249051
H38   H     H_    0.162168 0.548000 0.431629 0.248567
H39   H     H_    0.136511 0.474314 0.474474 0.206633
H40   H     H_    0.098651 0.468807 0.433939 0.209964
H41   H     H_    0.431358 0.905939 0.571669 0.267454
H42   H     H_    0.424860 0.868846 0.528848 0.249000
H43   H     H_    0.455978 0.836698 0.568355 0.248538
H44   H     H_    0.529013 0.864152 0.525508 0.206644
H45   H     H_    0.533595 0.902130 0.566047 0.209850
H46   H     H_    0.695980 0.749675 0.303666 0.129488
H47   H     H_    0.575262 0.131122 0.471111 0.249744
H48   H     H_    0.568721 0.094015 0.428299 0.266965
H49   H     H_    0.544135 0.163268 0.431606 0.247638
H50   H     H_    0.466483 0.097882 0.433954 0.208766
H51   H     H_    0.471122 0.135867 0.474486 0.206437
H52   H     H_    0.250389 0.695951 0.696388 0.129299
H53   H     H_    0.720251 0.333418 0.275263 0.129408
H54   H     H_    0.195982 0.750324 0.803667 0.129487
H55   H     H_    0.833387 0.220282 0.224692 0.129364
H56   H     H_    0.220251 0.166582 0.775265 0.129413
H57   H     H_    0.333431 0.720252 0.724744 0.129390
H58   H     H_    0.750391 0.804050 0.196388 0.129305
H59   H     H_    0.804109 0.249550 0.803585 0.129152
H60   H     H_    0.166541 0.779782 0.224819 0.129380
H61   H     H_    0.779757 0.833435 0.775216 0.129334
H62   H     H_    0.249611 0.195920 0.196368 0.129374
H63   H     H_    0.166583 0.220246 0.224767 0.129357
H64   H     H_    0.804111 0.750436 0.803609 0.129293
H65   H     H_    0.249540 0.804130 0.196418 0.129135
H66   H     H_    0.779781 0.166538 0.775182 0.129393
H67   H     H_    0.833432 0.779749 0.224746 0.129394
H68   H     H_    0.720283 0.666621 0.275312 0.129352
H69   H     H_    0.195968 0.249642 0.803627 0.129397
H70   H     H_    0.750328 0.195990 0.196337 0.129514
H71   H     H_    0.220283 0.833379 0.775314 0.129356
H72   H     H_    0.624787 0.180778 0.303184 0.155509
H73   H     H_    0.403331 0.791109 0.723951 0.154058
H74   H     H_    0.791117 0.596695 0.276074 0.154055
H75   H     H_    0.180759 0.375203 0.696799 0.155519
H76   H     H_    0.375308 0.819127 0.303144 0.155006
H77   H     H_    0.596654 0.208921 0.724009 0.153983
H78   H     H_    0.208925 0.403366 0.275974 0.153988
H79   H     H_    0.250323 0.304005 0.696334 0.129504
H80   H     H_    0.819119 0.624688 0.696867 0.154984
H81   H     H_    0.596632 0.791068 0.724033 0.154008
H82   H     H_    0.375285 0.180868 0.303140 0.154988
H83   H     H_    0.819171 0.375280 0.696836 0.155531
H84   H     H_    0.208917 0.596647 0.275986 0.153996
H85   H     H_    0.403305 0.208878 0.723924 0.154035
H86   H     H_    0.624781 0.819238 0.303199 0.155512
H87   H     H_    0.180811 0.624770 0.696832 0.154978
H88   H     H_    0.791102 0.403327 0.276048 0.154044
H89   H     H_    0.124783 0.680760 0.803200 0.155503
H90   H     H_    0.304112 0.749564 0.303609 0.129303
H91   H     H_    0.903307 0.291121 0.223926 0.154031
H92   H     H_    0.291103 0.096674 0.776050 0.154054
H93   H     H_    0.680812 0.875231 0.196832 0.154993
H94   H     H_    0.875289 0.319129 0.803139 0.155002
H95   H     H_    0.096632 0.708932 0.224034 0.154014
H96   H     H_    0.708916 0.903353 0.775987 0.153990
H97   H     H_    0.319178 0.124726 0.196832 0.155515
H98   H     H_    0.096656 0.291081 0.224004 0.153980
H99   H     H_    0.875307 0.680873 0.803144 0.154998
H100  H     H_    0.319117 0.875313 0.196867 0.154972
H101  H     H_    0.666580 0.279757 0.724772 0.129360
H102  H     H_    0.708927 0.096632 0.775970 0.153980
H103  H     H_    0.903332 0.708892 0.223954 0.154062
H104  H     H_    0.124789 0.319224 0.803184 0.155515
H105  H     H_    0.680763 0.124793 0.196801 0.155533
H106  H     H_    0.291117 0.903304 0.776075 0.154061
H107  H     H_    0.630412 0.076491 0.028879 0.249745
H108  H     H_    0.593369 0.069601 0.071693 0.266924
H109  H     H_    0.662850 0.045667 0.068383 0.247653
H110  H     H_    0.598195 0.967404 0.066043 0.208824
H111  H     H_    0.636135 0.972399 0.025508 0.206443
H112  H     H_    0.279779 0.333461 0.275185 0.129394
H113  H     H_    0.406581 0.930479 0.928340 0.267404
H114  H     H_    0.369553 0.923636 0.971163 0.249008
H115  H     H_    0.337113 0.954450 0.931656 0.248577
H116  H     H_    0.363885 0.027742 0.974497 0.206661
H117  H     H_    0.401817 0.032677 0.933956 0.209913
H118  H     H_    0.928116 0.632970 0.028846 0.248945
H119  H     H_    0.933698 0.595732 0.071667 0.267584
H120  H     H_    0.960017 0.664345 0.068351 0.248512
H121  H     H_    0.035998 0.597018 0.066044 0.209734
H122  H     H_    0.032353 0.635094 0.025503 0.206657
H123  H     H_    0.749542 0.695870 0.696417 0.129134
H124  H     H_    0.066379 0.404312 0.928301 0.267081
H125  H     H_    0.072004 0.367059 0.971115 0.249683
H126  H     H_    0.040093 0.335687 0.931612 0.247649
H127  H     H_    0.967779 0.364884 0.974491 0.206447
H128  H     H_    0.964077 0.402969 0.933957 0.208649
H129  H     H_    0.410355 0.074307 0.071718 0.266688
H130  H     H_    0.373706 0.083097 0.028910 0.249897
H131  H     H_    0.339734 0.053981 0.068420 0.247599
H132  H     H_    0.362633 0.979436 0.025541 0.206420
H133  H     H_    0.400279 0.972495 0.066066 0.209036
H134  H     H_    0.666541 0.720217 0.724819 0.129380
H135  H     H_    0.626338 0.917029 0.971133 0.249138
H136  H     H_    0.589696 0.925766 0.928319 0.267136
H137  H     H_    0.660306 0.946132 0.931619 0.248607
H138  H     H_    0.599711 0.027584 0.933932 0.210117
H139  H     H_    0.637352 0.020705 0.974465 0.206621
H140  H     H_    0.922754 0.412889 0.071682 0.266959
H141  H     H_    0.912775 0.376565 0.028867 0.249222
H142  H     H_    0.940705 0.341626 0.068380 0.248681
H143  H     H_    0.016016 0.362026 0.025532 0.206637
H144  H     H_    0.024172 0.399413 0.066065 0.210278
O1    O     O_3   0.500000 1.000000 0.250000 -0.472557
O2    O     O_R   0.500000 0.045450 0.668550 -0.636518
O3    O     O_R   0.045450 0.500000 0.331450 -0.636469
O4    O     O_R   0.954550 0.500000 0.668550 -0.639127
O5    O     O_R   0.000000 0.545450 0.831450 -0.639223
O6    O     O_R   0.000000 0.454550 0.168550 -0.636554
O7    O     O_R   0.454550 1.000000 0.831450 -0.636491
O8    O     O_R   0.545450 1.000000 0.168550 -0.639148
O9    O     O_R   0.000000 0.454550 0.831450 -0.639109
O10   O     O_R   0.000000 0.545450 0.168550 -0.636459
O11   O     O_R   0.545450 1.000000 0.831450 -0.636516
O12   O     O_3   0.500000 1.000000 0.750000 -0.472637
O13   O     O_R   0.454550 1.000000 0.168550 -0.639177
O14   O     O_R   0.564020 0.890520 0.271340 -0.645143
O15   O     O_R   0.435980 0.109480 0.728660 -0.646379
O16   O     O_R   0.109480 0.564020 0.271340 -0.646383
O17   O     O_R   0.890520 0.435980 0.728660 -0.645164
O18   O     O_R   0.435980 0.109480 0.271340 -0.645527
O19   O     O_R   0.564020 0.890520 0.728660 -0.646869
O20   O     O_R   0.890520 0.435980 0.271340 -0.646884
O21   O     O_R   0.109480 0.564020 0.728660 -0.645535
O22   O     O_R   0.564020 0.109480 0.728660 -0.646828
O23   O     O_3   0.000000 0.500000 0.250000 -0.472637
O24   O     O_R   0.435980 0.890520 0.271340 -0.645562
O25   O     O_R   0.109480 0.435980 0.728660 -0.645138
O26   O     O_R   0.890520 0.564020 0.271340 -0.646430
O27   O     O_R   0.435980 0.890520 0.728660 -0.646447
O28   O     O_R   0.564020 0.109480 0.271340 -0.645146
O29   O     O_R   0.890520 0.564020 0.728660 -0.645541
O30   O     O_R   0.109480 0.435980 0.271340 -0.646827
O31   O     O_R   0.064020 0.390520 0.771340 -0.645152
O32   O     O_R   0.935980 0.609480 0.228660 -0.646453
O33   O     O_R   0.609480 0.064020 0.771340 -0.646839
O34   O     O_3   0.000000 0.500000 0.750000 -0.472556
O35   O     O_R   0.390520 0.935980 0.228660 -0.645557
O36   O     O_R   0.935980 0.609480 0.771340 -0.645573
O37   O     O_R   0.064020 0.390520 0.228660 -0.646837
O38   O     O_R   0.390520 0.935980 0.771340 -0.646437
O39   O     O_R   0.609480 0.064020 0.228660 -0.645147
O40   O     O_R   0.064020 0.609480 0.228660 -0.646857
O41   O     O_R   0.935980 0.390520 0.771340 -0.645514
O42   O     O_R   0.609480 0.935980 0.228660 -0.645519
O43   O     O_R   0.390520 0.064020 0.771340 -0.646871
O44   O     O_R   0.935980 0.390520 0.228660 -0.646375
O45   O     O_R   0.500000 0.045450 0.331450 -0.639141
O46   O     O_R   0.064020 0.609480 0.771340 -0.645137
O47   O     O_R   0.390520 0.064020 0.228660 -0.645155
O48   O     O_R   0.609480 0.935980 0.771340 -0.646376
O49   O     O_R   0.500000 0.954550 0.668550 -0.636490
O50   O     O_R   0.954550 0.500000 0.331450 -0.636537
O51   O     O_R   0.045450 0.500000 0.668550 -0.639197
O52   O     O_R   0.500000 0.954550 0.331450 -0.639185
Zn1   Zn    Zn3+2 0.564990 1.000000 0.219470 0.966645
Zn2   Zn    Zn3+2 0.935010 0.500000 0.280530 0.966595
Zn3   Zn    Zn3+2 0.500000 0.064990 0.719470 0.966352
Zn4   Zn    Zn3+2 0.500000 0.935010 0.280530 0.966310
Zn5   Zn    Zn3+2 0.935010 0.500000 0.719470 0.966311
Zn6   Zn    Zn3+2 0.064990 0.500000 0.280530 0.966339
Zn7   Zn    Zn3+2 0.500000 0.935010 0.719470 0.966583
Zn8   Zn    Zn3+2 0.500000 0.064990 0.280530 0.966625
Zn9   Zn    Zn3+2 0.435010 0.000000 0.780530 0.966614
Zn10  Zn    Zn3+2 0.000000 0.564990 0.219470 0.966596
Zn11  Zn    Zn3+2 0.000000 0.435010 0.780530 0.966639
Zn12  Zn    Zn3+2 0.435010 1.000000 0.219470 0.966290
Zn13  Zn    Zn3+2 0.564990 0.000000 0.780530 0.966321
Zn14  Zn    Zn3+2 0.000000 0.435010 0.219470 0.966340
Zn15  Zn    Zn3+2 0.000000 0.564990 0.780530 0.966297
Zn16  Zn    Zn3+2 0.064990 0.500000 0.719470 0.966624

loop_
_geom_bond_atom_site_label_1
_geom_bond_atom_site_label_2
_ccdc_geom_bond_type
C35   C192  A    
C110  C166  T    
C78   H133  S    
C36   C191  A    
C191  H55   S    
C70   H111  S    
O41   Zn11  S    
C3    H58   S    
C41   C61   A    
O38   Zn9   S    
C91   H16   S    
C143  O10   A    
C108  C164  T    
C81   H138  S    
C124  C133  A    
O23   Zn2   S    
C153  O44   A    
C43   H98   S    
C1    C68   S    
C33   C189  A    
C120  C133  A    
C7    C42   A    
O32   Zn10  S    
C47   H102  S    
C118  C131  A    
C75   H118  S    
C131  C166  S    
C134  C169  S    
C93   H19   S    
C94   H29   S    
C95   H27   S    
C8    C43   A    
C1    C15   A    
C25   C60   A    
C65   C147  S    
C23   C179  A    
C99   H36   S    
C33   C69   A    
C52   C161  S    
C29   H84   S    
C21   C177  A    
C29   C64   A    
C39   H94   S    
C72   C124  S    
C141  O4    A    
C147  O43   A    
O6    Zn14  S    
C17   C52   A    
C17   C173  A    
C106  C142  S    
C53   C159  S    
C154  O46   A    
C137  O52   A    
O28   Zn8   S    
C120  C125  A    
C123  C126  A    
C189  H53   S    
C184  H13   S    
C97   H31   S    
C129  C164  S    
O18   Zn8   S    
C24   C185  A    
C96   H34   S    
C82   H137  S    
O42   Zn1   S    
C18   H73   S    
C13   C184  A    
C152  O19   A    
C148  O16   A    
C100  C114  S    
C35   C127  S    
C37   H92   S    
C157  O25   A    
C19   H74   S    
C98   H40   S    
C102  H42   S    
C139  O2    A    
C100  H44   S    
C87   H12   S    
C91   H14   S    
C127  C176  A    
C104  H48   S    
C3    C46   A    
C92   C119  S    
C158  O32   A    
C72   C73   S    
C74   H122  S    
C22   C58   A    
C153  O20   A    
C185  H24   S    
C49   C55   A    
C130  C165  S    
C88   H8    S    
C140  O50   A    
C68   C189  A    
C146  O42   A    
C100  H45   S    
C77   H126  S    
C155  O33   A    
C95   H25   S    
O47   Zn12  S    
C71   H107  S    
C66   C146  S    
C72   H116  S    
C28   C63   A    
C85   H6    S    
C147  O15   A    
C98   C99   S    
C31   C187  A    
C10   C138  A    
C88   H10   S    
C159  O27   A    
C51   H106  S    
C107  C165  T    
C23   H78   S    
C155  O22   A    
C2    C7    A    
C16   C51   A    
C56   C156  S    
C73   H113  S    
C103  H50   S    
C25   C180  A    
C85   C86   S    
C23   C59   A    
C1    C173  A    
O39   Zn1   S    
C6    C182  A    
C67   C154  S    
O8    Zn1   S    
C78   C80   S    
C104  H49   S    
C183  H2    S    
C144  O11   A    
O29   Zn5   S    
C135  C170  S    
C78   C121  S    
C86   H4    S    
C186  H35   S    
C37   C65   A    
O14   Zn4   S    
C82   H136  S    
C83   H144  S    
C107  C141  S    
C42   C62   A    
C21   H76   S    
C43   C59   A    
C2    C183  A    
C75   H119  S    
C64   C148  S    
O27   Zn7   S    
C80   H129  S    
C106  C170  T    
C5    H60   S    
C10   C45   A    
C99   H37   S    
C11   C149  A    
C72   H117  S    
C27   C183  A    
C190  H54   S    
C34   C190  A    
O40   Zn10  S    
C45   C56   A    
C133  C168  S    
C28   H83   S    
C89   H17   S    
C68   C191  A    
O9    Zn11  S    
C84   H141  S    
C6    H61   S    
C51   C53   A    
C144  O7    A    
C63   C150  S    
C117  C130  A    
C27   C62   A    
C50   C52   A    
C83   C84   S    
O26   Zn2   S    
O43   Zn9   S    
C178  H101  S    
O15   Zn3   S    
C10   H65   S    
O51   Zn16  S    
C114  C118  A    
O7    Zn9   S    
C161  O28   A    
C32   H87   S    
C16   C105  A    
C102  H41   S    
C32   C67   A    
C181  H134  S    
C18   C174  A    
C22   H77   S    
C7    H62   S    
C46   C187  A    
C5    C40   A    
C73   H115  S    
O23   Zn10  S    
C187  H46   S    
C19   C54   A    
O1    Zn4   S    
C116  C175  A    
C90   C168  T    
O12   Zn13  S    
C137  O45   A    
C140  O3    A    
O36   Zn15  S    
C91   H15   S    
C174  H57   S    
C156  O35   A    
C192  H56   S    
C111  C117  A    
O34   Zn11  S    
C17   H72   S    
C28   C184  A    
C94   C118  S    
C20   C176  A    
C163  O30   A    
C35   C186  A    
C149  C178  A    
C29   C185  A    
C179  H112  S    
C19   C175  A    
C30   C65   A    
C145  O13   A    
C177  H90   S    
C37   C192  A    
C2    C160  S    
C80   H131  S    
C112  C130  A    
C138  C177  A    
O3    Zn6   S    
C90   C144  S    
O23   Zn14  S    
C12   C116  A    
C33   H88   S    
C125  C134  A    
O1    Zn8   S    
C87   C88   S    
O21   Zn16  S    
C44   H99   S    
C31   C66   A    
C76   C126  S    
C11   C47   A    
C132  C167  S    
C12   C48   A    
C89   C115  S    
C76   H127  S    
C181  C182  A    
C139  O49   A    
C26   C61   A    
O34   Zn15  S    
C87   C117  S    
C128  C136  A    
O16   Zn6   S    
O48   Zn13  S    
C151  O18   A    
C97   H30   S    
C20   H75   S    
O17   Zn5   S    
C152  O48   A    
C31   H86   S    
C18   C53   A    
C113  C119  A    
C16   H71   S    
C111  C129  A    
C136  C172  S    
C9    C44   A    
C92   H22   S    
C70   C71   S    
C12   H67   S    
C121  C134  A    
C175  H68   S    
C42   H97   S    
C102  H43   S    
C81   H139  S    
C78   H132  S    
C70   H110  S    
O19   Zn7   S    
O50   Zn2   S    
C87   H11   S    
C162  O29   A    
C62   C151  S    
C142  O5    A    
C93   H21   S    
O30   Zn6   S    
C36   H91   S    
O25   Zn16  S    
O44   Zn14  S    
C69   C153  S    
C14   C127  A    
O37   Zn14  S    
C26   H81   S    
O49   Zn7   S    
C77   H125  S    
C84   H140  S    
C93   H20   S    
C94   H28   S    
C85   C122  S    
C159  O38   A    
C158  O26   A    
C70   C125  S    
C126  C135  A    
C173  H1    S    
C188  H52   S    
O12   Zn3   S    
C8    C160  A    
O11   Zn13  S    
C77   H124  S    
O35   Zn12  S    
O24   Zn4   S    
C110  C137  S    
C71   H109  S    
C4    H59   S    
C34   C67   A    
C21   C56   A    
O46   Zn15  S    
C142  O9    A    
O1    Zn1   S    
C180  H123  S    
C8    H63   S    
C97   H32   S    
C46   C116  S    
C96   H33   S    
C79   C169  T    
C48   H103  S    
C44   C60   A    
C143  O6    A    
C92   C93   S    
C122  C128  A    
C94   C95   S    
C122  C135  A    
C163  O37   A    
C40   H95   S    
C86   H5    S    
O34   Zn16  S    
C98   H39   S    
C26   C181  A    
C55   C157  S    
C150  O41   A    
C151  O47   A    
C34   H89   S    
C103  C104  S    
C83   H143  S    
C83   C123  S    
O12   Zn7   S    
C104  H47   S    
C57   C105  S    
C80   H130  S    
C171  C182  S    
C22   C178  A    
C74   H121  S    
C81   C82   S    
C79   C145  S    
C48   C54   A    
C96   C112  S    
C81   C120  S    
C92   H23   S    
C30   C186  A    
C103  C113  S    
C50   H105  S    
O34   Zn5   S    
C14   C49   A    
C84   H142  S    
O2    Zn3   S    
C95   H26   S    
C49   H104  S    
C15   C50   A    
O33   Zn13  S    
C4    C13   A    
C71   H108  S    
C57   C188  A    
C109  C167  T    
O22   Zn3   S    
C85   H7    S    
O1    Zn12  S    
C74   C128  S    
C38   C66   A    
C3    C38   A    
C121  C124  A    
C6    C41   A    
C103  H51   S    
O23   Zn6   S    
C88   H9    S    
C41   H96   S    
O31   Zn11  S    
C101  C172  T    
C141  O51   A    
C20   C55   A    
C73   H114  S    
O20   Zn2   S    
O45   Zn8   S    
C74   C75   S    
C32   C188  A    
C162  O36   A    
C11   H66   S    
C59   C163  S    
C76   C77   S    
C108  C140  S    
C24   C138  S    
C160  C179  A    
C14   H69   S    
C86   H3    S    
C54   C158  S    
C60   C162  S    
C4    C39   A    
O52   Zn4   S    
C96   C97   S    
C100  C102  S    
C119  C132  A    
C82   H135  S    
C150  O17   A    
O12   Zn9   S    
O10   Zn10  S    
O13   Zn12  S    
C27   H82   S    
C75   H120  S    
O4    Zn5   S    
C105  C174  A    
C171  C180  A    
C9    H64   S    
C89   C91   S    
C145  O8    A    
C99   H38   S    
C36   C69   A    
C115  C129  A    
C30   H85   S    
C98   C111  S    
C113  C131  A    
C114  C132  A    
O5    Zn15  S    
C89   H18   S    
C76   H128  S    
C39   C63   A    
C156  O24   A    
C40   C64   A    
C123  C136  A    
C109  C139  S    
C13   C149  S    
C57   C190  A    
C15   H70   S    
C47   C58   A    
C101  C143  S    
C154  O21   A    
C5    C24   A    
C45   H100  S    
C161  O39   A    
C146  O14   A    
C61   C152  S    
C25   H80   S    
C9    C171  A    
C58   C155  S    
C148  O40   A    
C176  H79   S    
C157  O31   A    
C112  C115  A    
C38   H93   S    
