data_mof_unit_pretest_171.cif
_audit_creation_date              2012-10-26T19:07:19-0400
_audit_creation_method            fapswitch 2.2
_symmetry_space_group_name_H-M    P1
_symmetry_Int_Tables_number       1
_space_group_crystal_system       triclinic
_cell_length_a                    15.080593
_cell_length_b                    13.878773
_cell_length_c                    10.716458
_cell_angle_alpha                 89.205637
_cell_angle_beta                  86.661246
_cell_angle_gamma                 91.109991
_cell_volume                      2238.47621321

loop_
_atom_site_label
_atom_site_type_symbol
_atom_type_description
_atom_site_fract_x
_atom_site_fract_y
_atom_site_fract_z
_atom_type_partial_charge
C1    C     C_R   0.328551 0.499635 0.505748 0.611751
C2    C     C_R   0.964490 0.627147 0.335940 -0.063239
C3    C     C_R   0.429746 0.792169 0.555923 0.349193
C4    C     C_R   0.570103 0.208438 0.441716 0.344080
C5    C     C_R   0.569729 0.795482 0.441538 0.355435
C6    C     C_R   0.430242 0.202815 0.554709 0.353231
C7    C     C_R   0.572660 0.898375 0.441915 0.016333
C8    C     C_R   0.425341 0.100841 0.543851 0.021051
C9    C     C_R   0.424909 0.894768 0.548102 0.003033
C10   C     C_R   0.574288 0.105361 0.444157 0.003180
C11   C     C_R   0.499189 0.948170 0.494956 -0.111652
C12   C     C_R   0.671476 0.501118 0.498140 0.620926
C13   C     C_R   0.499824 0.051352 0.494623 -0.113517
C14   C     C_R   0.646697 0.952624 0.388495 0.170876
C15   C     C_R   0.347619 0.047507 0.583594 0.180138
C16   C     C_R   0.348433 0.946007 0.592503 0.146327
C17   C     C_R   0.649081 0.054281 0.393678 0.142554
C18   C     C_R   0.496076 0.500688 0.260271 0.556713
C19   C     C_R   0.496913 0.499059 0.740208 0.556241
C20   C     C_3   0.495684 0.591677 0.035422 0.144990
C21   C     C_3   0.487074 0.407133 0.965292 0.148429
C22   C     C_3   0.566806 0.541620 0.952197 0.109693
C23   C     C_R   0.952610 0.529922 0.525774 -0.039937
C24   C     C_3   0.416439 0.457150 0.049508 0.136830
C25   C     C_3   0.421102 0.546463 0.961855 0.124701
C26   C     C_3   0.561595 0.451685 0.038475 0.104951
C27   C     C_3   0.492556 0.496860 0.876597 -0.004664
C28   C     C_3   0.491368 0.502052 0.124255 -0.003818
C29   C     C_R   0.821102 0.553727 0.408479 0.097099
C30   C     C_R   0.179153 0.466465 0.615634 0.065135
C31   C     C_R   0.768733 0.505975 0.504228 0.085358
C32   C     C_R   0.230878 0.503058 0.511211 0.072226
C33   C     C_R   0.807763 0.469238 0.610376 0.169689
C34   C     C_R   0.046354 0.529677 0.526575 -0.040093
C35   C     C_R   0.191407 0.556479 0.417726 0.188857
C36   C     C_R   0.899921 0.485698 0.624906 0.000461
C37   C     C_R   0.098948 0.573603 0.427086 0.002309
C38   C     C_3   0.283836 0.637945 0.999181 -0.281217
C39   C     C_3   0.695627 0.355924 0.000944 -0.291596
C40   C     C_3   0.493317 0.763956 0.980011 -0.287916
C41   C     C_3   0.476872 0.234558 0.021096 -0.291287
C42   C     C_3   0.700021 0.645373 0.971656 -0.313802
C43   C     C_3   0.274726 0.367470 0.033187 -0.312482
C44   C     C_3   0.820939 0.501009 0.196483 -0.327170
C45   C     C_R   0.912330 0.570722 0.422979 -0.025310
C46   C     C_3   0.193628 0.309567 0.711081 -0.269642
C47   C     C_3   0.713735 0.896268 0.193531 -0.279592
C48   C     C_3   0.217767 0.103894 0.487494 -0.290954
C49   C     C_3   0.257094 0.883690 0.771059 -0.282313
C50   C     C_3   0.789962 0.131381 0.437100 -0.272987
C51   C     C_R   0.086908 0.483290 0.625534 -0.028056
C52   C     C_R   0.941926 0.461261 0.735684 0.223259
C53   C     C_R   0.056407 0.632838 0.340476 0.222114
C54   C     C_R   0.034107 0.457138 0.733462 -0.064615
Cu1   Cu    Cu3+1 0.500000 0.597420 0.500000 1.006979
Cu2   Cu    Cu3+1 0.500000 0.402580 0.500000 0.988906
H1    H     H_    0.063758 0.435801 0.818850 0.139889
H2    H     H_    0.662089 0.308001 0.935958 0.168967
H3    H     H_    0.551225 0.703939 0.133521 0.245497
H4    H     H_    0.509006 0.835893 0.018168 0.111915
H5    H     H_    0.424961 0.765768 0.947908 0.176468
H6    H     H_    0.540054 0.750470 0.898606 0.176311
H7    H     H_    0.525525 0.292811 0.850397 0.268730
H8    H     H_    0.463079 0.163484 0.979271 0.126839
H9    H     H_    0.422857 0.248597 0.092690 0.192923
H10   H     H_    0.540787 0.230939 0.067002 0.166547
H11   H     H_    0.680904 0.544495 0.830516 0.286498
H12   H     H_    0.934242 0.668704 0.264163 0.146183
H13   H     H_    0.771563 0.636439 0.944695 0.128701
H14   H     H_    0.687563 0.625642 0.071925 0.150823
H15   H     H_    0.684677 0.722488 0.958676 0.152233
H16   H     H_    0.311220 0.447889 0.186000 0.279324
H17   H     H_    0.237468 0.309204 0.086754 0.140189
H18   H     H_    0.307767 0.335711 0.948743 0.189779
H19   H     H_    0.226609 0.421687 0.005270 0.124334
H20   H     H_    0.787033 0.638127 0.258672 0.263288
H21   H     H_    0.790597 0.513153 0.106707 0.150302
H22   H     H_    0.807223 0.425343 0.228286 0.168596
H23   H     H_    0.320066 0.562497 0.837826 0.248634
H24   H     H_    0.893602 0.511356 0.178028 0.161689
H25   H     H_    0.215778 0.441317 0.794614 0.228613
H26   H     H_    0.123293 0.298279 0.744361 0.113177
H27   H     H_    0.202598 0.279515 0.616111 0.223100
H28   H     H_    0.234397 0.269419 0.776218 0.176810
H29   H     H_    0.792270 0.360791 0.725385 0.347343
H30   H     H_    0.209620 0.574307 0.240363 0.330766
H31   H     H_    0.846245 0.492668 0.851746 0.329379
H32   H     H_    0.152485 0.724711 0.304936 0.357110
H33   H     H_    0.390951 0.692867 0.672980 0.361797
H34   H     H_    0.250485 0.698337 0.953363 0.143680
H35   H     H_    0.609889 0.307354 0.325573 0.362391
H36   H     H_    0.613708 0.695835 0.335066 0.346398
H37   H     H_    0.391740 0.303288 0.664808 0.374406
H38   H     H_    0.781582 0.929681 0.350928 0.265793
H39   H     H_    0.768633 0.851138 0.155337 0.135477
H40   H     H_    0.719042 0.968367 0.147020 0.134248
H41   H     H_    0.649698 0.860926 0.172347 0.149153
H42   H     H_    0.224556 0.071212 0.676048 0.259900
H43   H     H_    0.154367 0.141610 0.507331 0.120213
H44   H     H_    0.202085 0.031397 0.450787 0.149061
H45   H     H_    0.316168 0.666168 0.082077 0.213164
H46   H     H_    0.258402 0.146206 0.415432 0.162444
H47   H     H_    0.245334 0.842618 0.583313 0.301176
H48   H     H_    0.190885 0.850136 0.795941 0.144145
H49   H     H_    0.261579 0.953579 0.819653 0.129340
H50   H     H_    0.309145 0.836113 0.804848 0.174930
H51   H     H_    0.723089 0.147967 0.269696 0.284590
H52   H     H_    0.851453 0.162110 0.388792 0.135359
H53   H     H_    0.808084 0.068140 0.494247 0.132129
H54   H     H_    0.760357 0.186589 0.499923 0.202450
H55   H     H_    0.232411 0.583206 0.028965 0.141670
H56   H     H_    0.659905 0.431089 0.163479 0.258541
H57   H     H_    0.743499 0.312570 0.051668 0.143718
H58   H     H_    0.732223 0.413392 0.946872 0.187633
N1    N     N_R   0.500000 0.743810 0.500000 -0.252463
N2    N     N_2   0.219946 0.410609 0.707817 -0.531986
N3    N     N_2   0.719875 0.905328 0.327184 -0.438500
N4    N     N_2   0.264975 0.095238 0.600804 -0.463950
N5    N     N_2   0.267978 0.898046 0.636798 -0.501258
N6    N     N_2   0.728435 0.102222 0.345299 -0.508472
N7    N     N_R   0.500000 0.256190 0.500000 -0.259974
N8    N     N_2   0.348005 0.597072 0.910770 -0.530582
N9    N     N_2   0.632403 0.397801 0.089569 -0.531324
N10   N     N_2   0.499911 0.690746 0.076465 -0.489574
N11   N     N_2   0.481240 0.308213 0.923838 -0.508891
N12   N     N_2   0.646118 0.587091 0.893221 -0.502190
N13   N     N_2   0.338784 0.410724 0.111549 -0.509609
N14   N     N_2   0.785543 0.567413 0.289506 -0.541482
O1    O     O_R   0.370260 0.582280 0.500030 -0.444671
O2    O     O_3   0.244532 0.585015 0.314366 -0.720488
O3    O     O_3   0.896166 0.447325 0.849423 -0.741178
O4    O     O_3   0.101090 0.698926 0.261437 -0.724347
O5    O     O_3   0.363045 0.741516 0.621518 -0.704392
O6    O     O_3   0.637529 0.260098 0.379409 -0.706102
O7    O     O_3   0.639294 0.747817 0.384021 -0.664798
O8    O     O_3   0.365405 0.246394 0.626862 -0.689752
O9    O     O_R   0.629740 0.417720 0.499970 -0.446186
O10   O     O_R   0.629740 0.582280 0.499970 -0.482177
O11   O     O_R   0.370260 0.417720 0.500030 -0.489704
O12   O     O_R   0.499980 0.582260 0.316850 -0.520350
O13   O     O_R   0.500020 0.417740 0.683150 -0.531069
O14   O     O_R   0.500020 0.582260 0.683150 -0.518554
O15   O     O_R   0.499980 0.417740 0.316850 -0.521925
O16   O     O_3   0.755186 0.412553 0.692951 -0.736006

loop_
_geom_bond_atom_site_label_1
_geom_bond_atom_site_label_2
_ccdc_geom_bond_type
C43   H17   S    
C49   H50   S    
Cu1   Cu2   S    
C8    C13   A    
C23   C45   A    
C34   C37   A    
C50   H54   S    
C30   C51   A    
H37   O8    S    
C49   H48   S    
C40   H6    S    
C30   N2    S    
C7    C11   A    
C34   C51   A    
Cu1   O10   S    
C50   N6    S    
C44   H21   S    
C35   C37   A    
C9    C16   A    
C38   H45   S    
C2    H12   S    
C48   N4    S    
H38   N3    S    
C22   N12   S    
C20   C25   S    
C10   C17   A    
C15   C16   A    
C42   H14   S    
C33   C36   A    
C39   N9    S    
H31   O3    S    
C6    O8    S    
C17   N6    S    
C46   H26   S    
Cu2   O15   S    
C7    C14   A    
C44   N14   S    
Cu1   O1    S    
C24   N13   S    
C47   H40   S    
C31   C33   A    
C19   C27   S    
C25   N8    S    
C1    O11   A    
C37   C53   A    
C23   C34   A    
C43   H18   S    
C21   C27   S    
C19   O13   A    
Cu1   O14   S    
C5    N1    A    
C50   H52   S    
C14   C17   A    
C48   H44   S    
H29   O16   S    
C21   C26   S    
C52   C54   A    
C33   O16   S    
H42   N4    S    
C2    C45   A    
C43   H19   S    
C40   N10   S    
H23   N8    S    
H47   N5    S    
H33   O5    S    
H16   N13   S    
C32   C35   A    
C41   N11   S    
C44   H24   S    
C18   C28   S    
C24   C25   S    
H56   N9    S    
H11   N12   S    
C43   N13   S    
C5    C7    A    
Cu2   O11   S    
C42   N12   S    
H30   O2    S    
C41   H9    S    
C20   C28   S    
C39   H57   S    
C39   H2    S    
C2    C53   A    
C42   H13   S    
C40   H5    S    
C29   C45   A    
C3    O5    S    
C3    C9    A    
C47   N3    S    
C39   H58   S    
C48   H46   S    
C53   O4    S    
H7    N11   S    
C18   O12   A    
C9    C11   A    
C35   O2    S    
C38   N8    S    
C46   H28   S    
Cu2   O13   S    
C20   C22   S    
C8    C15   A    
C22   C27   S    
C12   C31   S    
H20   N14   S    
C12   O10   A    
C21   C24   S    
C16   N5    S    
H36   O7    S    
C26   N9    S    
H32   O4    S    
C21   N11   S    
C6    N7    A    
H51   N6    S    
C4    O6    S    
H3    N10   S    
C5    O7    S    
C48   H43   S    
C18   O15   A    
C19   O14   A    
C52   O3    S    
C26   C28   S    
C49   H49   S    
C24   C28   S    
C10   C13   A    
C36   C52   A    
C6    C8    A    
C41   H10   S    
C25   C27   S    
C38   H34   S    
C1    O1    A    
C47   H41   S    
C15   N4    S    
C46   N2    S    
C51   C54   A    
Cu2   N7    S    
C44   H22   S    
C29   C31   A    
C3    N1    A    
C30   C32   A    
Cu2   O9    S    
C11   C13   A    
C49   N5    S    
H35   O6    S    
Cu1   N1    S    
H25   N2    S    
C42   H15   S    
C4    N7    A    
C50   H53   S    
C20   N10   S    
Cu1   O12   S    
C46   H27   S    
C1    C32   S    
C23   C36   A    
C22   C26   S    
C29   N14   S    
C40   H4    S    
C47   H39   S    
C12   O9    A    
C14   N3    S    
C41   H8    S    
C38   H55   S    
C4    C10   A    
C54   H1    S    
