data_mof_unit_pretest_1189.cif
_audit_creation_date              2012-12-10T17:38:47-0500
_audit_creation_method            fapswitch 2.2
_symmetry_space_group_name_H-M    P1
_symmetry_Int_Tables_number       1
_space_group_crystal_system       triclinic
_cell_length_a                    12.331795
_cell_length_b                    13.024014
_cell_length_c                    23.452607
_cell_angle_alpha                 77.494853
_cell_angle_beta                  101.118787
_cell_angle_gamma                 116.270431
_cell_volume                      3277.22892794

loop_
_atom_site_label
_atom_site_type_symbol
_atom_type_description
_atom_site_fract_x
_atom_site_fract_y
_atom_site_fract_z
_atom_type_partial_charge
C1    C     C_R   0.855375 0.285901 0.505760 0.799258
C2    C     C_R   0.769630 0.359505 0.023020 -0.169065
C3    C     C_R   0.768314 0.362457 0.963052 -0.175919
C4    C     C_R   0.876447 0.422432 0.936177 -0.010135
C5    C     C_R   0.986737 0.479471 0.970261 -0.019053
C6    C     C_R   0.095810 0.539218 0.943893 -0.011870
C7    C     C_R   0.205332 0.595935 0.978246 -0.169679
C8    C     C_R   0.206390 0.594271 0.038003 -0.178960
C9    C     C_R   0.877304 0.427380 0.875872 0.524983
C10   C     C_R   0.092472 0.540525 0.883648 0.525080
C11   C     C_R   0.018278 0.594335 0.751372 -0.113034
C12   C     C_R   0.998618 0.498831 0.608632 0.788763
C13   C     C_R   0.023019 0.597720 0.692045 -0.233725
C14   C     C_R   0.993878 0.495398 0.670491 -0.012707
C15   C     C_R   0.955812 0.389211 0.707811 -0.246337
C16   C     C_R   0.951319 0.385781 0.767149 -0.103638
C17   C     C_R   0.983655 0.488479 0.789325 0.351842
C18   C     C_R   0.047801 0.424297 0.254130 0.480052
C19   C     C_R   0.053606 0.432949 0.313043 -0.301238
C20   C     C_R   0.996683 0.493122 0.329023 -0.111502
C21   C     C_R   0.935044 0.546309 0.285454 -0.277565
C22   C     C_R   0.932574 0.542882 0.225973 -0.015212
C23   C     C_R   0.145024 0.714839 0.492238 0.783302
C24   C     C_R   0.990005 0.481728 0.210094 0.220610
C25   C     C_R   0.281526 0.036119 0.433080 -0.206291
C26   C     C_R   0.228658 0.839256 0.483108 -0.108419
C27   C     C_R   0.812222 0.086763 0.554622 -0.226470
C28   C     C_R   0.730444 0.975530 0.574749 0.457874
C29   C     C_R   0.606732 0.939837 0.552261 -0.306478
C30   C     C_R   0.566984 0.010393 0.506262 0.026166
C31   C     C_R   0.653511 0.120918 0.484636 -0.009905
C32   C     C_R   0.442188 0.978500 0.484480 0.040691
C33   C     C_R   0.405468 0.060307 0.446030 0.037661
C34   C     C_R   0.999517 0.498677 0.391168 0.818658
C35   C     C_R   0.493255 0.164762 0.421008 0.405622
C36   C     C_R   0.615850 0.191178 0.438203 -0.266066
C37   C     C_R   0.352730 0.867222 0.499548 -0.238386
C38   C     C_R   0.192261 0.928082 0.453637 -0.019614
C39   C     C_R   0.774364 0.161632 0.512247 -0.157815
C40   C     C_R   0.341864 0.319777 0.590282 -0.397441
C41   C     C_R   0.756800 0.642691 0.419156 0.107007
C42   C     C_R   0.658413 0.671831 0.400701 -0.255074
C43   C     C_R   0.556705 0.618667 0.431584 -0.186868
C44   C     C_R   0.550912 0.533199 0.480973 0.020585
C45   C     C_R   0.096542 0.534652 0.124389 0.568250
C46   C     C_R   0.653141 0.504734 0.497456 0.274436
C47   C     C_R   0.447154 0.473647 0.513760 -0.042638
C48   C     C_R   0.446108 0.383878 0.560846 0.064050
C49   C     C_R   0.548303 0.358044 0.577123 -0.046427
C50   C     C_R   0.648390 0.417983 0.545457 -0.228161
C51   C     C_R   0.342995 0.498423 0.501500 -0.067750
C52   C     C_R   0.244105 0.351233 0.578161 0.665831
C53   C     C_R   0.882266 0.416997 0.117406 0.523613
C54   C     C_R   0.878975 0.417053 0.057279 -0.007735
C55   C     C_R   0.987929 0.477168 0.030813 -0.021388
C56   C     C_R   0.098032 0.535439 0.064687 -0.030042
Cu1   Cu    Cu3+1 0.098270 0.475410 0.513370 0.970219
Cu2   Cu    Cu3+1 0.901730 0.524590 0.486630 0.929247
H1    H     H_    0.684623 0.312729 0.042315 0.184783
H2    H     H_    0.100627 0.390371 0.346268 0.177945
H3    H     H_    0.891382 0.593423 0.297636 0.162186
H4    H     H_    0.253987 0.102739 0.408082 0.178881
H5    H     H_    0.378763 0.798893 0.522048 0.158477
H6    H     H_    0.905044 0.117428 0.575475 0.197427
H7    H     H_    0.542424 0.860392 0.573586 0.121403
H8    H     H_    0.682356 0.317703 0.937858 0.181134
H9    H     H_    0.680692 0.269947 0.415885 0.181595
H10   H     H_    0.335226 0.244631 0.622409 0.161840
H11   H     H_    0.336790 0.565497 0.466794 0.145071
H12   H     H_    0.835710 0.685166 0.395160 0.132292
H13   H     H_    0.483581 0.645027 0.415316 0.139187
H14   H     H_    0.661341 0.736491 0.362503 0.146836
H15   H     H_    0.722228 0.394378 0.560755 0.213229
H16   H     H_    0.290466 0.642293 0.959041 0.183117
H17   H     H_    0.292276 0.639489 0.063128 0.179991
H18   H     H_    0.041994 0.673860 0.767975 0.142170
H19   H     H_    0.050215 0.679881 0.663091 0.129835
H20   H     H_    0.928826 0.309251 0.690913 0.139427
H21   H     H_    0.923751 0.303593 0.796014 0.141827
N1    N     N_R   0.989565 0.476985 0.149353 -0.453363
N2    N     N_R   0.984287 0.485629 0.850915 -0.465074
N3    N     N_R   0.246280 0.438190 0.533650 -0.209469
N4    N     N_R   0.754320 0.561190 0.466710 -0.203256
O1    O     O_R   0.972510 0.318130 0.516820 -0.531560
O2    O     O_2   0.779239 0.357789 0.143791 -0.569156
O3    O     O_2   0.772066 0.375377 0.842333 -0.573279
O4    O     O_2   0.196667 0.595375 0.858031 -0.549464
O5    O     O_R   0.806530 0.359650 0.494230 -0.601961
O6    O     O_R   0.082990 0.479200 0.593420 -0.547491
O7    O     O_R   0.917010 0.520720 0.570830 -0.600737
O8    O     O_R   0.193470 0.640350 0.505770 -0.590240
O9    O     O_R   0.027490 0.681870 0.483180 -0.579199
O10   O     O_R   0.082990 0.479280 0.429170 -0.582002
O11   O     O_R   0.917010 0.520800 0.406580 -0.594387
O12   O     O_2   0.200736 0.592673 0.157088 -0.536506
C57   C     C_R   0.869516 0.603757 0.181444 0.153317
C58   C     C_R   0.930557 0.687519 0.135914 -0.156593
C59   C     C_R   0.869906 0.743945 0.094038 -0.138193
C60   C     C_R   0.748365 0.717911 0.097501 -0.102429
C61   C     C_R   0.687384 0.635742 0.143009 -0.132699
C62   C     C_R   0.747697 0.579150 0.184969 -0.113980
H22   H     H_    0.025191 0.709952 0.133108 0.144106
H23   H     H_    0.917291 0.808175 0.059000 0.135858
H24   H     H_    0.701585 0.761710 0.065052 0.128895
H25   H     H_    0.593352 0.615846 0.145780 0.139035
H26   H     H_    0.699279 0.515510 0.219934 0.132714
C63   C     C_R   0.065439 0.916169 0.446956 0.136670
C64   C     C_R   0.011216 0.950543 0.392224 -0.187516
C65   C     C_R   0.898633 0.955040 0.387953 -0.164837
C66   C     C_R   0.839274 0.925077 0.438100 -0.104952
C67   C     C_R   0.891719 0.889180 0.492362 -0.132940
C68   C     C_R   0.004684 0.885810 0.497040 -0.084032
H27   H     H_    0.057306 0.976063 0.353200 0.131398
H28   H     H_    0.857728 0.982508 0.345890 0.125724
H29   H     H_    0.752266 0.928777 0.434870 0.135029
H30   H     H_    0.845832 0.865351 0.531013 0.151605
H31   H     H_    0.045981 0.861899 0.539894 0.110868
O13   O     O_3   0.460327 0.246146 0.383050 -0.605932
C69   C     C_3   0.460023 0.233834 0.324684 0.019299
H32   H     H_    0.386003 0.149406 0.314373 0.142404
H33   H     H_    0.549106 0.238714 0.317443 0.144413
C70   C     C_3   0.437576 0.332106 0.283045 -0.302270
H34   H     H_    0.350972 0.331209 0.290766 0.246387
H35   H     H_    0.512817 0.416476 0.292169 0.222495
C71   C     C_3   0.430471 0.320653 0.218873 -0.909634
H36   H     H_    0.516831 0.322911 0.209955 0.269459
H37   H     H_    0.414880 0.393606 0.189906 0.267727
H38   H     H_    0.354102 0.238011 0.208412 0.252709
O14   O     O_3   0.775367 0.912409 0.621092 -0.629410
C72   C     C_3   0.704325 0.791487 0.626669 0.026861
H39   H     H_    0.671318 0.760794 0.583041 0.134884
H40   H     H_    0.625613 0.768387 0.650959 0.156057
C73   C     C_3   0.782281 0.730018 0.661898 -0.322106
H41   H     H_    0.861873 0.752742 0.638376 0.212755
H42   H     H_    0.816413 0.759124 0.705681 0.228298
C74   C     C_3   0.709340 0.598999 0.670298 -0.892855
H43   H     H_    0.630240 0.574243 0.694499 0.250114
H44   H     H_    0.767501 0.556076 0.695908 0.279608
H45   H     H_    0.676409 0.568408 0.626965 0.258103
O15   O     O_3   0.139561 0.288929 0.606360 -0.594998
C75   C     C_3   0.165160 0.266925 0.668252 0.013755
H46   H     H_    0.115238 0.300094 0.688441 0.176084
H47   H     H_    0.262681 0.312454 0.685424 0.122451
C76   C     C_3   0.118659 0.136235 0.688496 -0.354304
H48   H     H_    0.018672 0.094328 0.676357 0.242199
H49   H     H_    0.161941 0.099359 0.666166 0.218998
C77   C     C_3   0.146122 0.108702 0.754838 -0.893757
H50   H     H_    0.245945 0.147080 0.767812 0.256315
H51   H     H_    0.110044 0.013394 0.768146 0.257613
H52   H     H_    0.102255 0.143450 0.778152 0.255694
C78   C     C_R   0.557779 0.272493 0.629157 0.110869
C79   C     C_R   0.581490 0.180003 0.622495 -0.151801
C80   C     C_R   0.596968 0.102801 0.671500 -0.140685
C81   C     C_R   0.589108 0.117475 0.727614 -0.113395
C82   C     C_R   0.565689 0.209311 0.734746 -0.089200
C83   C     C_R   0.550614 0.286911 0.685818 -0.154903
H53   H     H_    0.588087 0.168164 0.579337 0.151559
H54   H     H_    0.615309 0.031790 0.665990 0.151831
H55   H     H_    0.601212 0.057744 0.765561 0.135190
H56   H     H_    0.559565 0.220582 0.778219 0.165772
H57   H     H_    0.533415 0.358082 0.692075 0.137290
O16   O     O_3   0.104544 0.364335 0.239497 -0.592884
C84   C     C_3   0.019155 0.248486 0.237291 0.037322
H58   H     H_    0.941729 0.244683 0.202958 0.168735
H59   H     H_    0.983654 0.206700 0.280672 0.132481
C85   C     C_3   0.081379 0.180862 0.221967 -0.323580
H60   H     H_    0.126325 0.226927 0.181362 0.237747
H61   H     H_    0.152033 0.175580 0.258401 0.214602
C86   C     C_3   0.990501 0.058472 0.212053 -0.930093
H62   H     H_    0.943711 0.010565 0.251868 0.249219
H63   H     H_    0.039193 0.011167 0.202338 0.259809
H64   H     H_    0.921628 0.061586 0.174242 0.264948

loop_
_geom_bond_atom_site_label_1
_geom_bond_atom_site_label_2
_ccdc_geom_bond_type
C55   C56   A    
C11   C13   A    
C41   C42   A    
C35   C36   A    
C34   O10   A    
C8    C56   A    
C78   C83   A    
C58   C59   A    
C36   H9    S    
C7    C8    A    
C53   C54   A    
C1    O1    A    
C61   H25   S    
Cu1   O6    S    
C18   C24   A    
C12   O7    A    
C28   C29   A    
C84   H59   S    
C18   C19   A    
C2    C3    A    
C11   H18   S    
C76   C77   S    
C5    C6    A    
C25   C38   A    
C15   H20   S    
Cu1   N3    S    
C59   H23   S    
C41   N4    A    
C38   C63   S    
C64   C65   A    
C28   O14   S    
C86   H62   S    
C23   C26   S    
C80   H54   S    
C66   C67   A    
C77   H50   S    
C52   O15   S    
O13   C69   S    
C75   H46   S    
C24   N1    S    
C19   C20   A    
C45   C56   A    
C27   C39   A    
C16   C17   A    
C73   C74   S    
C78   C79   A    
C67   H30   S    
C17   N2    S    
C31   C36   A    
C21   H3    S    
C58   H22   S    
C44   C47   A    
C20   C34   S    
C1    O5    A    
C60   H24   S    
Cu1   O10   S    
C13   C14   A    
C85   H61   S    
C86   H63   S    
C85   H60   S    
C74   H45   S    
C37   H5    S    
C44   C46   A    
C7    H16   S    
C9    N2    A    
C69   H33   S    
C13   H19   S    
C10   O4    S    
C49   C78   S    
C12   O6    A    
C53   N1    A    
C57   C62   A    
O15   C75   S    
C74   H44   S    
C2    C54   A    
C50   H15   S    
C2    H1    S    
C26   C38   A    
C47   C51   A    
C40   C52   A    
C8    H17   S    
C64   H27   S    
C72   H40   S    
C43   C44   A    
C29   C30   A    
C9    O3    S    
C71   H38   S    
C47   C48   A    
C30   C31   A    
C63   C64   A    
C57   C58   A    
C84   C85   S    
C42   H14   S    
Cu1   O1    S    
C63   C68   A    
C32   C37   A    
C20   C21   A    
C52   N3    A    
Cu2   O7    S    
C51   N3    A    
C81   C82   A    
C65   H28   S    
C29   H7    S    
C76   H49   S    
C48   C49   A    
C12   C14   S    
C83   H57   S    
C49   C50   A    
C71   H36   S    
C86   H64   S    
C22   C24   A    
C75   C76   S    
C72   C73   S    
C42   C43   A    
C70   H35   S    
C3    C4    A    
C45   O12   S    
C77   H52   S    
C82   C83   A    
C73   H42   S    
O16   C84   S    
C69   C70   S    
C62   H26   S    
C40   C48   A    
C54   C55   A    
C11   C17   A    
C43   H13   S    
Cu1   O8    S    
C67   C68   A    
C77   H51   S    
C82   H56   S    
C14   C15   A    
C22   C57   S    
C5    C55   A    
C34   O11   A    
C74   H43   S    
Cu2   O5    S    
C6    C10   A    
C69   H32   S    
C26   C37   A    
C70   H34   S    
C6    C7    A    
C19   H2    S    
C46   C50   A    
C10   N2    A    
O14   C72   S    
C60   C61   A    
C68   H31   S    
C76   H48   S    
C16   H21   S    
C32   C33   A    
C70   C71   S    
C75   H47   S    
C72   H39   S    
C4    C9    A    
C81   H55   S    
Cu2   N4    S    
C30   C32   A    
C18   O16   S    
Cu1   Cu2   S    
C73   H41   S    
C61   C62   A    
C33   C35   A    
C31   C39   A    
C79   H53   S    
C45   N1    A    
C23   O8    A    
C25   H4    S    
Cu2   O11   S    
C84   H58   S    
C27   H6    S    
C1    C39   S    
C46   N4    A    
C3    H8    S    
C4    C5    A    
C79   C80   A    
C85   C86   S    
C59   C60   A    
C40   H10   S    
C65   C66   A    
C27   C28   A    
C71   H37   S    
C23   O9    A    
C35   O13   S    
C53   O2    S    
C51   H11   S    
C80   C81   A    
C21   C22   A    
Cu2   O9    S    
C66   H29   S    
C15   C16   A    
C25   C33   A    
C41   H12   S    
