data_mof_unit_pretest_343.cif
_audit_creation_date              2012-12-10T17:27:51-0500
_audit_creation_method            fapswitch 2.2
_symmetry_space_group_name_H-M    P1
_symmetry_Int_Tables_number       1
_space_group_crystal_system       triclinic
_cell_length_a                    10.692275
_cell_length_b                    12.084937
_cell_length_c                    12.856027
_cell_angle_alpha                 93.93077
_cell_angle_beta                  93.215406
_cell_angle_gamma                 85.41669
_cell_volume                      1649.84919624

loop_
_atom_site_label
_atom_site_type_symbol
_atom_type_description
_atom_site_fract_x
_atom_site_fract_y
_atom_site_fract_z
_atom_type_partial_charge
C1    C     C_R   0.500168 0.522078 0.700362 0.872190
C2    C     C_R   0.455755 0.634822 0.862263 -0.222454
C3    C     C_R   0.547559 0.444255 0.868696 -0.268564
C4    C     C_R   0.739158 0.498620 0.498032 0.865129
C5    C     C_R   0.541122 0.451088 0.975630 0.168561
C6    C     C_R   0.494806 0.552157 0.026255 0.170126
C7    C     C_R   0.486879 0.559201 0.132566 -0.255962
C8    C     C_R   0.564429 0.364886 0.139574 -0.175527
C9    C     C_R   0.576773 0.357893 0.032442 -0.170352
C10   C     C_R   0.377124 0.956561 0.404669 -0.347935
C11   C     C_R   0.389783 0.840704 0.412119 0.507391
C12   C     C_R   0.934549 0.429889 0.415161 0.010003
C13   C     C_R   0.554092 0.859057 0.544085 0.177697
C14   C     C_R   0.548478 0.976453 0.533523 0.098091
C15   C     C_R   0.456040 0.025165 0.465307 -0.016518
C16   C     C_R   0.508684 0.477980 0.300215 0.858191
C17   C     C_R   0.444588 0.142167 0.459817 0.009428
C18   C     C_R   0.616314 0.162150 0.582252 0.020967
C19   C     C_R   0.631633 0.047196 0.589759 -0.278052
C20   C     C_R   0.260014 0.500606 0.496830 0.875292
C21   C     C_R   0.873107 0.353787 0.344857 -0.245397
C22   C     C_R   0.938519 0.291257 0.267995 0.417680
C23   C     C_R   0.871081 0.495235 0.493429 -0.083179
C24   C     C_R   0.060083 0.314319 0.250520 -0.190712
C25   C     C_R   0.117650 0.399043 0.311055 0.086523
C26   C     C_R   0.062278 0.444484 0.405042 0.025367
C27   C     C_3   0.639760 0.811170 0.630905 -0.369765
C28   C     C_3   0.591965 0.848364 0.738856 -0.869430
C29   C     C_3   0.216633 0.453881 0.258213 -0.399085
C30   C     C_3   0.160795 0.508607 0.160213 -0.777133
C31   C     C_3   0.124824 0.617751 0.667667 -0.421120
C32   C     C_3   0.164743 0.532746 0.747991 -0.853600
C33   C     C_R   0.932536 0.561549 0.568630 -0.238516
C34   C     C_R   0.061133 0.562116 0.571337 0.176453
C35   C     C_R   0.126192 0.504252 0.488871 -0.101124
C36   C     C_R   0.519647 0.465788 0.189143 -0.077539
C37   C     C_R   0.502909 0.535260 0.812066 -0.041244
C38   C     C_R   0.453561 0.644000 0.969774 -0.210628
Cl1   Cl    Cl    0.287604 0.760626 0.333118 -0.636177
Cl2   Cl    Cl    0.863317 0.192322 0.185707 -0.649756
H1    H     H_    0.879984 0.607620 0.629607 0.134488
H2    H     H_    0.105135 0.273849 0.183047 0.174568
H3    H     H_    0.451292 0.637338 0.170631 0.205215
H4    H     H_    0.590665 0.292559 0.183516 0.199737
H5    H     H_    0.415986 0.721142 0.008330 0.160790
H6    H     H_    0.488632 0.844587 0.738294 0.261047
H7    H     H_    0.637321 0.793134 0.797925 0.257318
H8    H     H_    0.613991 0.934572 0.763362 0.256640
H9    H     H_    0.647753 0.721170 0.626136 0.266472
H10   H     H_    0.737666 0.833433 0.624794 0.177513
H11   H     H_    0.231343 0.557218 0.127801 0.259257
H12   H     H_    0.611915 0.279867 0.994015 0.165179
H13   H     H_    0.131993 0.445090 0.098935 0.246258
H14   H     H_    0.078043 0.566330 0.179723 0.279781
H15   H     H_    0.256829 0.520839 0.308056 0.251503
H16   H     H_    0.292118 0.389732 0.236079 0.202785
H17   H     H_    0.236212 0.469450 0.716530 0.263773
H18   H     H_    0.205295 0.575475 0.819721 0.257825
H19   H     H_    0.082205 0.490386 0.769271 0.264878
H20   H     H_    0.206574 0.661940 0.648644 0.233455
H21   H     H_    0.059110 0.682920 0.704619 0.206517
H22   H     H_    0.416149 0.703472 0.818473 0.167153
H23   H     H_    0.584243 0.367043 0.829508 0.157273
H24   H     H_    0.373359 0.181037 0.408014 0.126183
H25   H     H_    0.679836 0.215326 0.626224 0.132628
H26   H     H_    0.305833 0.992687 0.351120 0.193714
H27   H     H_    0.709581 0.016019 0.639168 0.155163
H28   H     H_    0.775104 0.340198 0.348546 0.193603
N1    N     N_R   0.523130 0.207800 0.519340 -0.104245
N2    N     N_R   0.476870 0.792180 0.480660 -0.151657
O1    O     O_R   0.506170 0.421690 0.658830 -0.624095
O2    O     O_R   0.491330 0.609320 0.646410 -0.637254
O3    O     O_R   0.690660 0.406170 0.506210 -0.631618
O4    O     O_R   0.675810 0.593790 0.493790 -0.639279
O5    O     O_R   0.508670 0.390680 0.353590 -0.640874
O6    O     O_R   0.493830 0.578310 0.341170 -0.576202
O7    O     O_R   0.324190 0.406210 0.506210 -0.619185
O8    O     O_R   0.309340 0.593830 0.493790 -0.580433
Zn1   Zn    Zn3+2 0.509910 0.374720 0.508290 0.941857
Zn2   Zn    Zn3+2 0.490090 0.625280 0.491710 0.972952

loop_
_geom_bond_atom_site_label_1
_geom_bond_atom_site_label_2
_ccdc_geom_bond_type
C30   H11   S    
C28   H7    S    
C17   N1    A    
C16   O5    A    
C24   H2    S    
C7    C36   A    
C31   H21   S    
C32   H18   S    
O1    Zn1   S    
C11   N2    A    
C18   H25   S    
C30   H14   S    
C12   C23   A    
C28   H6    S    
C1    O1    A    
C20   O7    A    
C18   C19   A    
C10   C15   A    
C17   H24   S    
C5    C6    A    
O8    Zn2   S    
C13   N2    A    
C34   C35   A    
C8    C36   A    
C38   H5    S    
C20   C35   S    
C8    C9    A    
C23   C33   A    
C6    C38   A    
C19   H27   S    
C7    H3    S    
C4    O4    A    
C27   H10   S    
C1    C37   S    
C18   N1    A    
O7    Zn1   S    
O4    Zn2   S    
C13   C14   A    
C9    H12   S    
C32   H17   S    
C10   H26   S    
C25   C29   S    
C30   H13   S    
C1    O2    A    
N2    Zn2   S    
O6    Zn2   S    
C24   C25   A    
C4    C23   S    
C29   H15   S    
C25   C26   A    
C12   C21   A    
C12   C26   A    
C31   H20   S    
C5    C9    A    
C29   C30   S    
C2    C38   A    
C31   C32   S    
C22   Cl2   S    
C33   C34   A    
O3    Zn1   S    
C31   C34   S    
C11   Cl1   S    
C4    O3    A    
C21   H28   S    
C22   C24   A    
N1    Zn1   S    
C15   C17   A    
C28   H8    S    
C16   O6    A    
C14   C19   A    
C8    H4    S    
C3    C5    A    
C6    C7    A    
C29   H16   S    
C3    H23   S    
C20   O8    A    
C33   H1    S    
O2    Zn2   S    
C16   C36   S    
C2    C37   A    
C10   C11   A    
C27   H9    S    
C26   C35   A    
C3    C37   A    
C27   C28   S    
C14   C15   A    
C13   C27   S    
C32   H19   S    
C21   C22   A    
O5    Zn1   S    
C2    H22   S    
