data_mof_unit_pretest_864.cif
_audit_creation_date              2012-10-26T19:43:53-0400
_audit_creation_method            fapswitch 2.2
_symmetry_space_group_name_H-M    P1
_symmetry_Int_Tables_number       1
_space_group_crystal_system       triclinic
_cell_length_a                    12.34053
_cell_length_b                    13.156649
_cell_length_c                    13.867388
_cell_angle_alpha                 105.195986
_cell_angle_beta                  73.905047
_cell_angle_gamma                 116.778643
_cell_volume                      1906.38578748

loop_
_atom_site_label
_atom_site_type_symbol
_atom_type_description
_atom_site_fract_x
_atom_site_fract_y
_atom_site_fract_z
_atom_type_partial_charge
C1    C     C_R   0.144404 0.713906 0.510111 0.528230
C2    C     C_R   0.563974 0.021651 0.471909 0.054556
C3    C     C_R   0.605544 0.951239 0.387549 0.021872
C4    C     C_R   0.984219 0.504073 0.686342 0.540855
C5    C     C_R   0.521182 0.846073 0.346362 -0.140130
C6    C     C_R   0.396505 0.808387 0.388847 -0.121609
C7    C     C_R   0.653474 0.120921 0.519004 0.125420
C8    C     C_R   0.814879 0.095641 0.380200 -0.160220
C9    C     C_R   0.226014 0.837506 0.519446 -0.003234
C10   C     C_R   0.641751 0.677227 0.659549 -0.148416
C11   C     C_R   0.251000 0.350564 0.364549 0.052696
C12   C     C_1   0.974888 0.506175 0.791535 -0.024747
C13   C     C_R   0.349266 0.317399 0.335031 -0.159647
C14   C     C_R   0.448719 0.373718 0.385982 -0.135863
C15   C     C_R   0.450979 0.464430 0.467740 -0.005161
C16   C     C_R   0.856090 0.286233 0.486920 0.538134
C17   C     C_R   0.347669 0.495072 0.495565 0.181673
C18   C     C_R   0.551124 0.525506 0.523011 -0.011921
C19   C     C_R   0.545731 0.615707 0.604214 0.037150
C20   C     C_R   0.444347 0.643851 0.630255 -0.173214
C21   C     C_R   0.347330 0.584467 0.577657 -0.093758
C22   C     C_R   0.657193 0.501495 0.501739 0.045902
C23   C     C_R   0.731095 0.987643 0.344101 -0.144317
C24   C     C_R   0.743033 0.649287 0.634853 0.044650
C25   C     C_R   0.015752 0.495864 0.313644 0.544796
C26   C     C_1   0.025162 0.493776 0.208428 -0.023765
C27   C     C_2   0.041434 0.490398 0.014377 -0.124184
C28   C     C_2   0.958747 0.509579 0.985559 -0.124207
C29   C     C_1   0.966942 0.507888 0.880137 -0.056404
C30   C     C_1   0.033192 0.492072 0.119809 -0.055733
C31   C     C_3   0.600303 0.093924 0.694880 -0.316346
C32   C     C_R   0.775817 0.164162 0.465456 0.012298
C33   C     C_R   0.180510 0.916326 0.585374 -0.134487
C34   C     C_R   0.259251 0.031562 0.607089 -0.150078
C35   C     C_R   0.385356 0.068040 0.569039 -0.100340
C36   C     C_R   0.434919 0.989564 0.506278 0.035699
C37   C     C_R   0.352040 0.876925 0.471855 0.013482
Cu1   Cu    Cu3+1 0.899780 0.525060 0.522890 0.927230
Cu2   Cu    Cu3+1 0.100220 0.474940 0.477110 0.914685
H1    H     H_    0.884598 0.526585 0.040877 0.133464
H2    H     H_    0.273417 0.611566 0.604702 0.182377
H3    H     H_    0.115587 0.473394 0.959061 0.133727
H4    H     H_    0.909422 0.127256 0.339434 0.122329
H5    H     H_    0.551789 0.792222 0.281331 0.111100
H6    H     H_    0.763344 0.935361 0.278626 0.113816
H7    H     H_    0.084066 0.888563 0.621373 0.125912
H8    H     H_    0.442118 0.158937 0.586281 0.158117
H9    H     H_    0.222874 0.092457 0.655812 0.120361
H10   H     H_    0.682143 0.251700 0.646765 0.273418
H11   H     H_    0.573266 0.134598 0.773224 0.141393
H12   H     H_    0.335001 0.727577 0.352208 0.149781
H13   H     H_    0.684612 0.081164 0.691035 0.143373
H14   H     H_    0.523487 0.008805 0.678656 0.163108
H15   H     H_    0.817564 0.696496 0.677214 0.119325
H16   H     H_    0.439467 0.712428 0.692610 0.105261
H17   H     H_    0.638371 0.746415 0.721626 0.088627
H18   H     H_    0.669179 0.434591 0.441410 0.121006
H19   H     H_    0.174161 0.306277 0.324597 0.124760
H20   H     H_    0.522222 0.344446 0.359871 0.100793
H21   H     H_    0.348341 0.247779 0.272430 0.102818
N1    N     N_R   0.748810 0.563010 0.557590 -0.231628
N2    N     N_R   0.250540 0.437620 0.443020 -0.233741
N3    N     N_2   0.624592 0.167932 0.623460 -0.538597
O1    O     O_R   0.025040 0.682470 0.528790 -0.499859
O2    O     O_R   0.194310 0.640150 0.490130 -0.525192
O3    O     O_R   0.903380 0.524130 0.659910 -0.498291
O4    O     O_R   0.072660 0.481800 0.621240 -0.510079
O5    O     O_R   0.805690 0.359850 0.509870 -0.506615
O6    O     O_R   0.974960 0.317530 0.471210 -0.503086
O7    O     O_R   0.927340 0.518200 0.378760 -0.493327
O8    O     O_R   0.096620 0.475870 0.340090 -0.505996

loop_
_geom_bond_atom_site_label_1
_geom_bond_atom_site_label_2
_ccdc_geom_bond_type
C4    O4    A    
C9    C33   A    
Cu1   O7    S    
C24   N1    A    
C25   O8    A    
C12   C29   T    
C16   C32   S    
C11   H19   S    
C10   H17   S    
C10   C19   A    
C34   H9    S    
C3    C23   A    
C19   C20   A    
C8    H4    S    
C31   H13   S    
C34   C35   A    
C11   N2    A    
C35   H8    S    
Cu1   N1    S    
C22   H18   S    
C9    C37   A    
C2    C3    A    
Cu2   O6    S    
C6    C37   A    
C1    C9    S    
C13   H21   S    
C13   C14   A    
C31   H14   S    
C27   C30   S    
C4    O3    A    
C14   H20   S    
C11   C13   A    
C27   H3    S    
C7    N3    S    
Cu1   Cu2   S    
C23   H6    S    
C20   H16   S    
C16   O5    A    
C25   O7    A    
C36   C37   A    
C5    H5    S    
Cu1   O5    S    
Cu2   O2    S    
C26   C30   T    
Cu1   O1    S    
H10   N3    S    
C5    C6    A    
C17   N2    A    
C21   H2    S    
C4    C12   S    
C28   H1    S    
C31   H11   S    
C24   H15   S    
C8    C32   A    
C1    O1    A    
C31   N3    S    
C8    C23   A    
C33   C34   A    
C20   C21   A    
Cu1   O3    S    
C18   C19   A    
C15   C18   A    
C6    H12   S    
C2    C36   A    
C27   C28   D    
C15   C17   A    
Cu2   N2    S    
Cu2   O8    S    
C14   C15   A    
C28   C29   S    
C7    C32   A    
C3    C5    A    
C10   C24   A    
C25   C26   S    
C18   C22   A    
Cu2   O4    S    
C1    O2    A    
C17   C21   A    
C16   O6    A    
C2    C7    A    
C33   H7    S    
C22   N1    A    
C35   C36   A    
