data_mof_unit_pretest_1028.cif
_audit_creation_date              2012-12-10T18:05:43-0500
_audit_creation_method            fapswitch 2.2
_symmetry_space_group_name_H-M    P1
_symmetry_Int_Tables_number       1
_space_group_crystal_system       triclinic
_cell_length_a                    10.820508
_cell_length_b                    10.81313
_cell_length_c                    9.513833
_cell_angle_alpha                 90.406008
_cell_angle_beta                  90.574437
_cell_angle_gamma                 90.753741
_cell_volume                      1112.97106513

loop_
_atom_site_label
_atom_site_type_symbol
_atom_type_description
_atom_site_fract_x
_atom_site_fract_y
_atom_site_fract_z
_atom_type_partial_charge
C1    C     C_R   0.499544 0.262074 0.499653 0.788115
C2    C     C_R   0.500486 0.737926 0.500348 0.787960
C3    C     C_R   0.871587 0.496791 0.502217 -0.029754
C4    C     C_R   0.128410 0.503164 0.497773 -0.030186
C5    C     C_R   0.939085 0.440602 0.611862 0.057923
C6    C     C_R   0.060908 0.559332 0.388116 0.057969
C7    C     C_R   0.515872 0.063262 0.373507 -0.138970
C8    C     C_R   0.484250 0.936739 0.626505 -0.138943
C9    C     C_R   0.516890 0.935428 0.374005 -0.170161
C10   C     C_R   0.483230 0.064573 0.626007 -0.170266
C11   C     C_R   0.500959 0.871757 0.500496 0.013486
C12   C     C_R   0.499136 0.128243 0.499512 0.013260
C13   C     C_R   0.428614 0.416688 0.072550 0.285238
C14   C     C_R   0.571401 0.583298 0.927450 0.285208
C15   C     C_R   0.429021 0.417097 0.923457 -0.136619
C16   C     C_R   0.570990 0.582893 0.076543 -0.136512
C17   C     C_R   0.262276 0.502134 0.499176 0.806623
C18   C     C_R   0.737723 0.497856 0.500824 0.807013
C19   C     C_R   0.237122 0.795282 0.166948 -0.169216
C20   C     C_R   0.762893 0.204838 0.833333 -0.169280
C21   C     C_R   0.176634 0.744266 0.284062 0.016366
C22   C     C_R   0.823259 0.255795 0.716107 0.016559
C23   C     C_R   0.120656 0.624763 0.269686 0.049667
C24   C     C_R   0.879332 0.375268 0.730362 0.049697
C25   C     C_R   0.121404 0.564108 0.138569 -0.168991
C26   C     C_R   0.878753 0.435965 0.861458 -0.169155
C27   C     C_R   0.180733 0.617254 0.024003 -0.125133
C28   C     C_R   0.819516 0.382889 0.976127 -0.125254
C29   C     C_R   0.239749 0.731896 0.038634 -0.119513
C30   C     C_R   0.760441 0.268267 0.961629 -0.119446
C31   C     C_R   0.932853 0.554343 0.391101 -0.209250
C32   C     C_R   0.067144 0.445587 0.608876 -0.209639
Cu1   Cu    Cu3+1 0.500000 0.500020 0.640660 0.975243
Cu2   Cu    Cu3+1 0.500000 0.499980 0.359340 0.975336
H1    H     H_    0.286767 0.772429 0.949856 0.136221
H2    H     H_    0.713507 0.227782 0.050491 0.136395
H3    H     H_    0.372083 0.351106 0.865289 0.127290
H4    H     H_    0.627935 0.648878 0.134712 0.127265
H5    H     H_    0.282264 0.885105 0.173877 0.167599
H6    H     H_    0.717695 0.115038 0.826506 0.167537
H7    H     H_    0.077076 0.474258 0.125712 0.134184
H8    H     H_    0.923153 0.525789 0.874226 0.134287
H9    H     H_    0.181820 0.568904 0.923983 0.140979
H10   H     H_    0.818556 0.431274 0.076124 0.140998
H11   H     H_    0.880796 0.598234 0.307563 0.136422
H12   H     H_    0.119197 0.401703 0.692422 0.136520
H13   H     H_    0.529123 0.110919 0.274942 0.135499
H14   H     H_    0.470997 0.889083 0.725071 0.135474
H15   H     H_    0.530226 0.886716 0.275535 0.133445
H16   H     H_    0.469891 0.113283 0.724477 0.133449
N1    N     N_R   0.500030 0.500030 0.852070 -0.153322
N2    N     N_R   0.499970 0.499970 0.147930 -0.153305
O1    O     O_R   0.499990 0.319660 0.618740 -0.598518
O2    O     O_R   0.500010 0.680340 0.381260 -0.598453
O3    O     O_R   0.499990 0.319630 0.381170 -0.558123
O4    O     O_R   0.500010 0.680370 0.618830 -0.558211
O5    O     O_R   0.319650 0.500020 0.618780 -0.592676
O6    O     O_R   0.680350 0.499980 0.381220 -0.592643
O7    O     O_R   0.319640 0.500000 0.381210 -0.551816
O8    O     O_R   0.680360 0.500000 0.618790 -0.551898
C33   C     C_2   0.171097 0.820001 0.415757 0.791413
O9    O     O_2   0.124156 0.778744 0.522210 -0.607071
O10   O     O_R   0.218355 0.941084 0.417210 -0.764981
H17   H     H_    0.209267 0.983540 0.511854 0.342442
C34   C     C_2   0.828580 0.180016 0.584437 0.791394
O11   O     O_2   0.874779 0.221458 0.477650 -0.607403
O12   O     O_R   0.781932 0.058702 0.583375 -0.764785
H18   H     H_    0.790812 0.016231 0.488714 0.342515
N3    N     N_3   0.353249 0.328572 0.144475 -0.519167
H19   H     H_    0.381199 0.240200 0.114195 0.181407
H20   H     H_    0.261992 0.338850 0.110107 0.193936
N4    N     N_3   0.646787 0.671392 0.855523 -0.519130
H21   H     H_    0.618899 0.759769 0.885853 0.181413
H22   H     H_    0.738049 0.661047 0.889837 0.194042

loop_
_geom_bond_atom_site_label_1
_geom_bond_atom_site_label_2
_ccdc_geom_bond_type
C17   O5    A    
Cu1   O5    S    
C8    H14   S    
C22   C34   S    
Cu2   O2    S    
C28   C30   A    
C15   N1    A    
Cu1   N1    S    
C13   N2    A    
C29   H1    S    
Cu2   N2    S    
C14   N1    A    
C30   H2    S    
C3    C5    A    
C5    C32   A    
C32   H12   S    
C7    C9    A    
Cu1   O4    S    
C21   C23   A    
Cu1   Cu2   S    
C1    O3    A    
Cu2   O3    S    
C10   H16   S    
C2    O4    A    
C3    C31   A    
C9    C11   A    
C4    C32   A    
C1    C12   S    
C13   N3    S    
C17   O7    A    
C8    C11   A    
C2    C11   S    
C19   H5    S    
C22   C24   A    
C18   O8    A    
C26   C28   A    
C19   C21   A    
C24   C26   A    
C6    C31   A    
Cu1   O8    S    
C10   C12   A    
N3    H19   S    
C13   C15   A    
Cu1   O1    S    
C33   O9    D    
C20   H6    S    
C14   C16   A    
C7    C12   A    
C2    O2    A    
C4    C6    A    
N3    H20   S    
C8    C10   A    
C4    C17   S    
O10   H17   S    
O12   H18   S    
C19   C29   A    
C27   H9    S    
C23   C25   A    
C9    H15   S    
C27   C29   A    
C26   H8    S    
C3    C18   S    
N4    H22   S    
C34   O11   D    
C31   H11   S    
C25   H7    S    
C21   C33   S    
Cu2   O6    S    
C1    O1    A    
C5    C24   S    
C20   C30   A    
C16   H4    S    
C6    C23   S    
Cu2   O7    S    
C14   N4    S    
C28   H10   S    
C33   O10   S    
C15   H3    S    
C18   O6    A    
C16   N2    A    
C20   C22   A    
N4    H21   S    
C34   O12   S    
C25   C27   A    
C7    H13   S    
