data_mof_unit_pretest_743.cif
_audit_creation_date              2013-03-05T15:44:05-0500
_audit_creation_method            fapswitch 2.2
_symmetry_space_group_name_H-M    P1
_symmetry_Int_Tables_number       1
_space_group_crystal_system       triclinic
_cell_length_a                    30.929435
_cell_length_b                    22.600141
_cell_length_c                    17.974702
_cell_angle_alpha                 89.91796
_cell_angle_beta                  123.701186
_cell_angle_gamma                 89.343361
_cell_volume                      10451.7893798

loop_
_atom_site_label
_atom_site_type_symbol
_atom_site_description
_atom_site_fract_x
_atom_site_fract_y
_atom_site_fract_z
_atom_type_partial_charge
C1    C     C_R   0.538189 0.597249 0.726828 -0.100547
C2    C     C_R   0.464359 0.397444 0.281195 -0.126892
C3    C     C_R   0.464941 0.608334 0.289335 -0.120918
C4    C     C_R   0.534895 0.392399 0.711687 -0.100234
C5    C     C_R   0.044058 0.086567 0.740490 -0.094547
C6    C     C_R   0.956359 0.917661 0.257710 -0.138028
C7    C     C_R   0.956735 0.085198 0.259477 -0.130977
C8    C     C_R   0.046769 0.922645 0.747407 -0.154520
H1    H     H_    0.511390 0.602333 0.747165 0.111739
H2    H     H_    0.493612 0.388249 0.267488 0.129112
H3    H     H_    0.495161 0.621101 0.280033 0.112572
H4    H     H_    0.506390 0.380603 0.725539 0.109671
H5    H     H_    0.020646 0.083706 0.767936 0.126791
H6    H     H_    0.981710 0.919180 0.233990 0.122254
H7    H     H_    0.983222 0.084269 0.238061 0.111707
H8    H     H_    0.022043 0.928607 0.771915 0.116161
N1    N     N_R   0.532970 0.559900 0.665210 -0.051979
N2    N     N_R   0.467030 0.440100 0.334790 -0.053054
N3    N     N_R   0.467030 0.559900 0.334790 -0.050481
N4    N     N_R   0.532970 0.440100 0.665210 -0.054609
N5    N     N_R   0.032970 0.059900 0.665210 -0.065555
N6    N     N_R   0.967030 0.940100 0.334790 -0.060547
N7    N     N_R   0.967030 0.059900 0.334790 -0.050535
N8    N     N_R   0.032970 0.940100 0.665210 -0.057016
C9    C     C_R   0.643821 0.582211 0.572168 -0.033857
C10   C     C_R   0.362476 0.404392 0.425053 -0.014962
C11   C     C_R   0.356006 0.583038 0.428167 -0.005661
C12   C     C_R   0.645213 0.420552 0.570821 -0.121023
C13   C     C_R   0.145327 0.077637 0.572183 -0.047452
C14   C     C_R   0.874889 0.890855 0.426514 -0.007736
C15   C     C_R   0.876854 0.112233 0.427121 -0.076872
C16   C     C_R   0.119820 0.887016 0.574346 -0.037636
H9    H     H_    0.677057 0.584206 0.640601 0.132697
H10   H     H_    0.333400 0.397633 0.355712 0.158007
H11   H     H_    0.321880 0.583785 0.360451 0.137310
H12   H     H_    0.678764 0.425188 0.638284 0.116296
H13   H     H_    0.177333 0.076303 0.641177 0.162339
H14   H     H_    0.844737 0.880939 0.357967 0.149543
H15   H     H_    0.850365 0.124918 0.358152 0.104770
H16   H     H_    0.148580 0.875094 0.643163 0.118112
N9    N     N_R   0.597900 0.559930 0.545530 -0.056334
N10   N     N_R   0.402100 0.440070 0.454470 -0.065351
N11   N     N_R   0.402100 0.559930 0.454470 -0.060381
N12   N     N_R   0.597900 0.440070 0.545530 -0.053740
N13   N     N_R   0.097900 0.059930 0.545530 -0.059747
N14   N     N_R   0.902100 0.940070 0.454470 -0.052424
N15   N     N_R   0.902100 0.059930 0.454470 -0.043363
N16   N     N_R   0.097900 0.940070 0.545530 -0.037953
C17   C     C_R   0.593732 0.581794 0.423142 -0.128501
C18   C     C_R   0.410289 0.404423 0.574016 -0.127301
C19   C     C_R   0.407212 0.583608 0.577406 -0.116132
C20   C     C_R   0.594395 0.418829 0.423147 -0.093722
C21   C     C_R   0.095961 0.076200 0.424187 -0.097500
C22   C     C_R   0.924664 0.890984 0.576546 -0.056220
C23   C     C_R   0.925859 0.110496 0.575767 -0.037823
C24   C     C_R   0.072579 0.888264 0.425283 -0.035567
H17   H     H_    0.581131 0.582589 0.353707 0.142679
H18   H     H_    0.422359 0.398839 0.642654 0.114884
H19   H     H_    0.420217 0.584458 0.647021 0.118150
H20   H     H_    0.579318 0.420440 0.353223 0.168252
H21   H     H_    0.083125 0.070781 0.355201 0.107664
H22   H     H_    0.940626 0.881057 0.646116 0.116125
H23   H     H_    0.944169 0.119383 0.645388 0.163161
H24   H     H_    0.057482 0.877675 0.356515 0.122115
N17   N     N_R   0.567170 0.559950 0.454460 -0.052077
N18   N     N_R   0.432830 0.440050 0.545540 -0.053510
N19   N     N_R   0.432830 0.559950 0.545540 -0.049500
N20   N     N_R   0.567170 0.440050 0.454460 -0.055699
N21   N     N_R   0.067170 0.059950 0.454460 -0.052641
N22   N     N_R   0.932830 0.940050 0.545540 -0.047769
N23   N     N_R   0.932830 0.059950 0.545540 -0.056714
N24   N     N_R   0.067170 0.940050 0.454460 -0.050277
C25   C     C_R   0.391004 0.605095 0.284980 -0.050321
C26   C     C_R   0.607074 0.392277 0.709878 -0.056423
C27   C     C_R   0.611420 0.597399 0.727555 -0.047268
C28   C     C_R   0.390101 0.399108 0.276061 -0.059537
C29   C     C_R   0.883908 0.085376 0.257443 -0.099442
C30   C     C_R   0.117952 0.920517 0.745381 -0.100059
C31   C     C_R   0.114900 0.089877 0.735879 0.007660
C32   C     C_R   0.883748 0.918277 0.256724 -0.020941
H25   H     H_    0.351929 0.610946 0.267656 0.162622
H26   H     H_    0.643617 0.379866 0.719065 0.088444
H27   H     H_    0.651569 0.602452 0.749591 0.123341
H28   H     H_    0.349879 0.393624 0.252388 0.152690
H29   H     H_    0.843740 0.086802 0.235615 0.169718
H30   H     H_    0.158221 0.922525 0.767042 0.136299
H31   H     H_    0.155335 0.090956 0.758073 0.125668
H32   H     H_    0.842832 0.920197 0.231430 0.143115
N25   N     N_R   0.421470 0.559970 0.334770 -0.065677
N26   N     N_R   0.578530 0.440030 0.665230 -0.055064
N27   N     N_R   0.578530 0.559970 0.665230 -0.058123
N28   N     N_R   0.421470 0.440030 0.334770 -0.064924
N29   N     N_R   0.921470 0.059970 0.334770 -0.061910
N30   N     N_R   0.078530 0.940030 0.665230 -0.059473
N31   N     N_R   0.078530 0.059970 0.665230 -0.063166
N32   N     N_R   0.921470 0.940030 0.334770 -0.069696
C33   C     C_R   0.586294 0.622269 0.765054 0.154394
C34   C     C_R   0.417064 0.369697 0.244844 0.147656
C35   C     C_R   0.417990 0.638864 0.258749 0.131512
C36   C     C_R   0.580521 0.361487 0.739420 0.155704
C37   C     C_R   0.094420 0.107071 0.784621 0.198095
C38   C     C_R   0.905075 0.902987 0.208936 0.167393
C39   C     C_R   0.904743 0.101615 0.208457 0.136700
C40   C     C_R   0.100128 0.911986 0.800288 0.135978
C41   C     C_R   0.641848 0.595053 0.495893 0.132670
C42   C     C_R   0.366774 0.379702 0.498751 0.148099
C43   C     C_R   0.359090 0.597571 0.504806 0.133581
C44   C     C_R   0.644909 0.407250 0.494790 0.103199
C45   C     C_R   0.146224 0.086412 0.496807 0.118321
C46   C     C_R   0.888214 0.859692 0.502482 0.058306
C47   C     C_R   0.892491 0.146529 0.502629 0.082411
C48   C     C_R   0.106094 0.854582 0.499917 0.039916
Ni1   Ni    Ni4+2 0.483030 0.500000 0.604430 0.244805
Ni2   Ni    Ni4+2 0.516970 0.500000 0.395570 0.246759
Ni3   Ni    Ni4+2 0.983030 0.000000 0.604430 0.244523
Ni4   Ni    Ni4+2 0.016970 1.000000 0.395570 0.231197
Ni5   Ni    Ni4+2 0.587400 0.500000 0.604430 0.245547
Ni6   Ni    Ni4+2 0.412600 0.500000 0.395570 0.255811
Ni7   Ni    Ni4+2 0.087400 0.000000 0.604430 0.276665
Ni8   Ni    Ni4+2 0.912600 1.000000 0.395570 0.269591
C49   C     C_R   0.738122 0.378780 0.574386 -0.152002
C50   C     C_R   0.336219 0.684903 0.545471 -0.225287
C51   C     C_R   0.360272 0.289259 0.566835 -0.220242
C52   C     C_R   0.663828 0.687488 0.465797 -0.234863
C53   C     C_R   0.127349 0.758026 0.470611 -0.249195
C54   C     C_R   0.835605 0.233455 0.421922 -0.235726
C55   C     C_R   0.867773 0.761584 0.525444 -0.236834
C56   C     C_R   0.178509 0.123655 0.408896 -0.216349
C57   C     C_R   0.690908 0.390931 0.492543 -0.008889
C58   C     C_R   0.321506 0.629015 0.509830 -0.065387
C59   C     C_R   0.336408 0.329642 0.495346 -0.034899
C60   C     C_R   0.678464 0.629095 0.491970 -0.073336
C61   C     C_R   0.142336 0.815229 0.501305 -0.060486
C62   C     C_R   0.874316 0.207421 0.503734 -0.027502
C63   C     C_R   0.853230 0.820569 0.503569 -0.055116
C64   C     C_R   0.190627 0.102273 0.491652 -0.014801
C65   C     C_R   0.688425 0.383262 0.411669 0.325103
C66   C     C_R   0.271945 0.606566 0.475283 0.283312
C67   C     C_R   0.287327 0.317404 0.416648 0.296548
C68   C     C_R   0.726344 0.605425 0.514420 0.331453
C69   C     C_R   0.192260 0.836218 0.533329 0.299204
C70   C     C_R   0.889373 0.236613 0.584528 0.291937
C71   C     C_R   0.804215 0.842592 0.478096 0.303475
C72   C     C_R   0.242150 0.107522 0.568184 0.296349
C73   C     C_R   0.729284 0.353372 0.413705 -0.041332
C74   C     C_R   0.235372 0.643119 0.475666 -0.045848
C75   C     C_R   0.264422 0.262750 0.408860 -0.029622
C76   C     C_R   0.761668 0.643412 0.514199 -0.047167
C77   C     C_R   0.228585 0.798038 0.537570 -0.051685
C78   C     C_R   0.856128 0.280575 0.582885 -0.056555
C79   C     C_R   0.768253 0.803511 0.472229 -0.049251
C80   C     C_R   0.276916 0.144329 0.563386 -0.062653
C81   C     C_R   0.773939 0.335757 0.496765 0.034805
C82   C     C_R   0.249937 0.701320 0.509057 0.040935
C83   C     C_R   0.286967 0.224728 0.484298 0.034851
C84   C     C_R   0.747286 0.703735 0.490415 0.041410
C85   C     C_R   0.213911 0.739509 0.506898 0.037609
C86   C     C_R   0.811866 0.299109 0.499739 0.040539
C87   C     C_R   0.782578 0.743064 0.493868 0.043184
C88   C     C_R   0.258940 0.176374 0.483654 0.034262
C89   C     C_R   0.779648 0.352298 0.576967 0.118350
C90   C     C_R   0.300660 0.721722 0.544061 0.134584
C91   C     C_R   0.335079 0.237939 0.563068 0.122493
C92   C     C_R   0.697917 0.725230 0.465304 0.140847
C93   C     C_R   0.163172 0.719529 0.473176 0.141283
C94   C     C_R   0.804243 0.278919 0.419411 0.126837
C95   C     C_R   0.832528 0.722262 0.520867 0.143564
C96   C     C_R   0.210675 0.163579 0.405349 0.131164
C97   C     C_R   0.725917 0.338731 0.334511 -0.059913
C98   C     C_R   0.185161 0.623402 0.444407 -0.088462
C99   C     C_R   0.217783 0.246665 0.329420 -0.079414
C100  C     C_R   0.811479 0.623529 0.540504 -0.082493
C101  C     C_R   0.279056 0.817505 0.570930 -0.078139
C102  C     C_R   0.864352 0.304586 0.661959 -0.062813
C103  C     C_R   0.718793 0.823697 0.447015 -0.081392
C104  C     C_R   0.327573 0.153974 0.638209 -0.060392
C105  C     C_R   0.315112 0.779155 0.575067 -0.165521
C106  C     C_R   0.825812 0.338954 0.659043 -0.171590
C107  C     C_R   0.683701 0.784567 0.443020 -0.159907
C108  C     C_R   0.356578 0.200391 0.637731 -0.120768
C109  C     C_R   0.762668 0.300984 0.337364 -0.170004
C110  C     C_R   0.149225 0.661564 0.443018 -0.175214
C111  C     C_R   0.191988 0.196361 0.327083 -0.180490
C112  C     C_R   0.846559 0.662740 0.543333 -0.172409
H33   H     H_    0.742442 0.386834 0.637363 0.133391
H34   H     H_    0.375133 0.700569 0.570810 0.163977
H35   H     H_    0.398354 0.297963 0.626152 0.142006
H36   H     H_    0.626062 0.703849 0.448312 0.161434
H37   H     H_    0.088174 0.743797 0.445553 0.162768
H38   H     H_    0.826651 0.215629 0.359188 0.147468
H39   H     H_    0.906166 0.746538 0.544826 0.154968
H40   H     H_    0.140611 0.117384 0.348411 0.145837
H41   H     H_    0.693694 0.353577 0.269571 0.200725
H42   H     H_    0.173323 0.578696 0.421129 0.188327
H43   H     H_    0.199702 0.273294 0.269259 0.203312
H44   H     H_    0.824091 0.578120 0.560736 0.181669
H45   H     H_    0.291098 0.862273 0.593752 0.194209
H46   H     H_    0.898964 0.294702 0.726908 0.208782
H47   H     H_    0.707016 0.869716 0.431325 0.188546
H48   H     H_    0.344221 0.127670 0.698680 0.198249
H49   H     H_    0.354041 0.794674 0.601147 0.155560
H50   H     H_    0.831401 0.353389 0.721268 0.154433
H51   H     H_    0.645773 0.800916 0.424146 0.151982
H52   H     H_    0.394475 0.208984 0.697555 0.169526
H53   H     H_    0.757305 0.287040 0.275116 0.163604
H54   H     H_    0.110509 0.645874 0.418056 0.149996
H55   H     H_    0.155032 0.186270 0.266133 0.162571
H56   H     H_    0.884924 0.646703 0.564291 0.145253
C113  C     C_R   0.399828 0.695315 0.206102 -0.068886
C114  C     C_R   0.597268 0.304003 0.784929 -0.064779
C115  C     C_R   0.611993 0.658748 0.843607 -0.079414
C116  C     C_R   0.397465 0.321900 0.178560 -0.078603
C117  C     C_R   0.877869 0.128586 0.117866 -0.077631
C118  C     C_R   0.133501 0.904438 0.899158 -0.061309
C119  C     C_R   0.127199 0.125588 0.877716 -0.031791
C120  C     C_R   0.875901 0.878527 0.120281 -0.092235
C121  C     C_R   0.398395 0.755578 0.092713 0.357249
C122  C     C_R   0.580383 0.198616 0.781151 0.366619
C123  C     C_R   0.667877 0.646353 0.003492 0.344432
C124  C     C_R   0.385258 0.285512 0.040991 0.355957
C125  C     C_R   0.883356 0.201272 0.023307 0.354321
C126  C     C_R   0.145135 0.870924 0.038353 0.390562
C127  C     C_R   0.173111 0.093360 0.033483 0.352365
C128  C     C_R   0.820886 0.904246 0.963858 0.378026
C129  C     C_R   0.419710 0.709710 0.155172 -0.293517
C130  C     C_R   0.562301 0.257087 0.754170 -0.298774
C131  C     C_R   0.621572 0.634192 0.922732 -0.289777
C132  C     C_R   0.410150 0.322442 0.114966 -0.285601
C133  C     C_R   0.907175 0.164118 0.098070 -0.292139
C134  C     C_R   0.112404 0.885462 0.946901 -0.295213
C135  C     C_R   0.130058 0.090469 0.944715 -0.214314
C136  C     C_R   0.865827 0.913290 0.048141 -0.234899
C137  C     C_R   0.361218 0.732685 0.202013 0.310444
C138  C     C_R   0.650372 0.292987 0.846851 0.245868
C139  C     C_R   0.640975 0.706010 0.844263 0.284151
C140  C     C_R   0.364088 0.278364 0.175109 0.307622
C141  C     C_R   0.823811 0.123380 0.054340 0.313332
C142  C     C_R   0.187812 0.912193 0.946977 0.230851
C143  C     C_R   0.165724 0.167103 0.900123 0.221556
C144  C     C_R   0.847522 0.827895 0.108378 0.287278
C145  C     C_R   0.339550 0.781558 0.140228 -0.096322
C146  C     C_R   0.669075 0.234798 0.853871 -0.093240
C147  C     C_R   0.686711 0.721307 0.926121 -0.116433
C148  C     C_R   0.337890 0.240531 0.099913 -0.104396
C149  C     C_R   0.798421 0.162907 0.979801 -0.089164
C150  C     C_R   0.219196 0.877578 0.024548 -0.051063
C151  C     C_R   0.213320 0.161365 0.983773 -0.060968
C152  C     C_R   0.803803 0.815315 0.022323 -0.105953
C153  C     C_R   0.356626 0.789713 0.081617 -0.055821
C154  C     C_R   0.634623 0.186811 0.828789 -0.041333
C155  C     C_R   0.703234 0.684443 0.002130 -0.039209
C156  C     C_R   0.345376 0.248705 0.029029 -0.049362
C157  C     C_R   0.828718 0.205613 0.970250 -0.024975
C158  C     C_R   0.199142 0.863428 0.076340 -0.032190
C159  C     C_R   0.215499 0.129321 0.053631 -0.013133
C160  C     C_R   0.787523 0.857698 0.952383 -0.052780
C161  C     C_R   0.297982 0.819051 0.127905 0.100526
C162  C     C_R   0.721407 0.223401 0.885222 0.141608
C163  C     C_R   0.719806 0.767158 0.933500 0.125080
C164  C     C_R   0.299730 0.199736 0.087325 0.122081
C165  C     C_R   0.743385 0.167562 0.922004 0.107554
C166  C     C_R   0.267914 0.853143 0.048102 0.119994
C167  C     C_R   0.259020 0.186693 0.999301 0.134020
C168  C     C_R   0.772051 0.766175 0.007242 0.118402
C169  C     C_R   0.751423 0.265377 0.876221 -0.143438
C170  C     C_R   0.283705 0.822986 0.190021 -0.093752
C171  C     C_R   0.300823 0.170656 0.157886 -0.093395
C172  C     C_R   0.702306 0.814522 0.871725 -0.092090
C173  C     C_R   0.284837 0.857568 0.990159 -0.129188
C174  C     C_R   0.709466 0.119608 0.898209 -0.064016
C175  C     C_R   0.790574 0.716475 0.064778 -0.120844
C176  C     C_R   0.266212 0.195765 0.929498 -0.094525
C177  C     C_R   0.803932 0.255006 0.914180 -0.086584
C178  C     C_R   0.233651 0.840786 0.162776 -0.068301
C179  C     C_R   0.259918 0.134646 0.140978 -0.091380
C180  C     C_R   0.736768 0.855435 0.876397 -0.100974
C181  C     C_R   0.330288 0.830073 0.010262 -0.088553
C182  C     C_R   0.655632 0.128932 0.848977 -0.099364
C183  C     C_R   0.756234 0.679937 0.068269 -0.052305
C184  C     C_R   0.310110 0.223805 0.945253 -0.056662
H57   H     H_    0.825547 0.289214 0.906937 0.169100
H58   H     H_    0.222221 0.834724 0.209159 0.183932
H59   H     H_    0.262829 0.112895 0.197231 0.178064
H60   H     H_    0.721796 0.888086 0.823388 0.185921
H61   H     H_    0.342285 0.837727 0.964929 0.190172
H62   H     H_    0.631122 0.090569 0.827994 0.188307
H63   H     H_    0.771800 0.645510 0.119048 0.173435
H64   H     H_    0.313360 0.230381 0.888943 0.184754
H65   H     H_    0.521013 0.266015 0.708855 0.179565
H66   H     H_    0.449525 0.682197 0.158209 0.179806
H67   H     H_    0.437800 0.353968 0.120253 0.194096
H68   H     H_    0.596788 0.599551 0.919954 0.196360
H69   H     H_    0.070710 0.883269 0.914030 0.183186
H70   H     H_    0.949001 0.165579 0.143608 0.185142
H71   H     H_    0.888672 0.952404 0.059673 0.180896
H72   H     H_    0.100615 0.057653 0.926941 0.170006
H73   H     H_    0.734214 0.306170 0.838947 0.122468
H74   H     H_    0.309917 0.810694 0.259315 0.186126
H75   H     H_    0.334314 0.172862 0.225951 0.172747
H76   H     H_    0.661807 0.821469 0.819719 0.172548
H77   H     H_    0.262743 0.881528 0.927367 0.153280
H78   H     H_    0.724009 0.074510 0.913295 0.198819
H79   H     H_    0.831585 0.706963 0.110424 0.168376
H80   H     H_    0.238425 0.179916 0.862654 0.149462
N33   N     N_R   0.683599 0.337903 0.910247 0.240847
O1    O     O_R   0.724378 0.321902 0.987549 -0.358437
O2    O     O_R   0.667801 0.392642 0.901123 -0.374681
N34   N     N_R   0.341656 0.717698 0.255400 0.198575
O3    O     O_R   0.371870 0.720264 0.342217 -0.416371
O4    O     O_R   0.294429 0.698528 0.217608 -0.423507
N35   N     N_R   0.352614 0.277847 0.242339 0.206217
O5    O     O_R   0.305628 0.289312 0.220636 -0.380024
O6    O     O_R   0.389856 0.270570 0.326187 -0.409509
N36   N     N_R   0.630055 0.727386 0.759838 0.217532
O7    O     O_R   0.583028 0.744090 0.697279 -0.373980
O8    O     O_R   0.664745 0.721435 0.740657 -0.418148
N37   N     N_R   0.209467 0.964248 0.933080 0.235392
O9    O     O_R   0.257180 0.979046 0.992765 -0.360487
O10   O     O_R   0.178958 0.004768 0.876143 -0.459859
N38   N     N_R   0.794767 0.082722 0.070983 0.210443
O11   O     O_R   0.760638 0.102312 0.086223 -0.398034
O12   O     O_R   0.805612 0.026346 0.078587 -0.416149
N39   N     N_R   0.857391 0.797499 0.187095 0.216192
O13   O     O_R   0.822807 0.799221 0.206945 -0.398906
O14   O     O_R   0.903536 0.775935 0.245275 -0.403362
N40   N     N_R   0.154801 0.218477 0.843491 0.240199
O15   O     O_R   0.175883 0.268854 0.879893 -0.341424
O16   O     O_R   0.117778 0.218541 0.758849 -0.351623
N41   N     N_R   0.417471 0.763847 0.036648 0.237574
O17   O     O_R   0.467180 0.768842 0.073025 -0.349000
O18   O     O_R   0.387488 0.752814 0.951572 -0.378212
N42   N     N_R   0.543365 0.152265 0.755918 0.238122
O19   O     O_R   0.498640 0.155169 0.679493 -0.374651
O20   O     O_R   0.550072 0.113441 0.815102 -0.353669
N43   N     N_R   0.680026 0.617013 0.084264 0.244760
O21   O     O_R   0.659066 0.566553 0.080521 -0.332439
O22   O     O_R   0.706653 0.644036 0.160607 -0.352014
N44   N     N_R   0.399274 0.287940 0.976938 0.239500
O23   O     O_R   0.413401 0.337699 0.960635 -0.356546
O24   O     O_R   0.405853 0.239236 0.945612 -0.363397
N45   N     N_R   0.915061 0.236841 0.005627 0.241209
O25   O     O_R   0.959772 0.255806 0.071360 -0.358381
O26   O     O_R   0.903145 0.242723 0.924229 -0.370453
N46   N     N_R   0.122604 0.859075 0.088363 0.240881
O27   O     O_R   0.078120 0.832643 0.050315 -0.368871
O28   O     O_R   0.141200 0.884174 0.165318 -0.346026
N47   N     N_R   0.175186 0.054904 0.099146 0.231874
O29   O     O_R   0.133331 0.046182 0.098067 -0.360600
O30   O     O_R   0.215104 0.019762 0.147219 -0.370323
N48   N     N_R   0.807444 0.946283 0.894083 0.237342
O31   O     O_R   0.841456 0.958800 0.875575 -0.354121
O32   O     O_R   0.767711 0.981768 0.865466 -0.397591
N49   N     N_R   0.645622 0.406141 0.328242 0.211719
O33   O     O_R   0.612674 0.370354 0.266301 -0.406319
O34   O     O_R   0.640921 0.462868 0.312643 -0.345438
N50   N     N_R   0.259740 0.547430 0.441370 0.234469
O35   O     O_R   0.289731 0.503442 0.490255 -0.366907
O36   O     O_R   0.222645 0.538455 0.358282 -0.338551
N51   N     N_R   0.257912 0.362884 0.350824 0.217528
O37   O     O_R   0.245225 0.357334 0.269006 -0.360159
O38   O     O_R   0.241760 0.409081 0.372109 -0.288849
N52   N     N_R   0.738258 0.543651 0.535675 0.228601
O39   O     O_R   0.741252 0.521007 0.604970 -0.441935
O40   O     O_R   0.746980 0.510138 0.486429 -0.379207
N53   N     N_R   0.206173 0.896041 0.563107 0.229261
O41   O     O_R   0.188383 0.939534 0.505545 -0.372825
O42   O     O_R   0.236332 0.906700 0.648247 -0.364111
N54   N     N_R   0.937992 0.222747 0.666506 0.214473
O43   O     O_R   0.981176 0.227746 0.670710 -0.349701
O44   O     O_R   0.939148 0.201015 0.734723 -0.390791
N55   N     N_R   0.791480 0.904509 0.458596 0.225038
O45   O     O_R   0.757471 0.922158 0.377009 -0.377696
O46   O     O_R   0.815824 0.943417 0.521515 -0.373372
N56   N     N_R   0.258123 0.079579 0.651391 0.214367
O47   O     O_R   0.272179 0.111241 0.721619 -0.417830
O48   O     O_R   0.260426 0.022266 0.657921 -0.294841

loop_
_geom_bond_atom_site_label_1
_geom_bond_atom_site_label_2
_geom_bond_distance
_ccdc_geom_bond_type
N21   Ni4   1.896148 S    
C170  H74   1.076602 S    
N41   O18   1.301275 A    
C178  H58   1.080133 S    
C175  H79   1.080119 S    
C21   N21   1.329886 A    
C31   H31   1.082089 S    
C158  C178  1.399963 A    
C9    C41   1.368680 A    
C2    C34   1.386185 A    
C171  C179  1.397487 A    
C13   C45   1.384505 A    
C28   C34   1.399930 A    
C14   H14   1.080973 S    
C90   C105  1.390732 A    
C24   N24   1.329455 A    
C3    N3    1.344306 A    
N40   O15   1.302023 A    
N29   Ni8   1.855677 S    
C4    H4    1.076643 S    
C182  H62   1.080447 S    
C138  N33   1.453533 S    
C5    H5    1.081340 S    
C175  C183  1.381266 A    
C8    H8    1.081108 S    
C146  C162  1.407702 A    
C28   H28   1.077171 S    
C25   H25   1.074067 S    
N54   O43   1.301514 A    
N49   O34   1.301090 A    
C126  C158  1.418695 A    
C5    C37   1.384453 A    
N13   N21   1.362504 A    
N39   O13   1.302172 A    
N26   Ni5   1.855677 S    
C145  C153  1.428970 A    
C99   H43   1.078714 S    
C9    N9    1.327587 A    
N43   O22   1.301575 A    
C97   H41   1.081029 S    
C11   H11   1.081534 S    
N36   O7    1.301436 A    
C149  C157  1.427550 A    
C12   N12   1.337546 A    
C81   C89   1.403452 A    
C144  N39   1.442294 S    
C51   C91   1.385417 A    
C127  N47   1.436722 S    
C22   N22   1.328497 A    
C69   N53   1.435065 S    
C49   C89   1.387866 A    
C141  C149  1.422216 A    
C8    C40   1.390905 A    
C139  C147  1.410112 A    
C92   C107  1.393418 A    
C168  C175  1.408488 A    
C124  C156  1.410476 A    
C143  N40   1.450656 S    
C29   C39   1.399775 A    
C119  C143  1.398716 A    
N38   O12   1.301305 A    
C58   C66   1.398286 A    
C117  C133  1.402438 A    
C128  C160  1.415405 A    
C99   C111  1.383666 A    
C23   C47   1.388732 A    
N6    N32   1.408965 A    
C55   C63   1.386539 A    
C103  C107  1.378742 A    
C72   N56   1.431764 S    
N22   Ni3   1.896149 S    
N5    N31   1.408963 A    
C26   N26   1.333276 A    
C177  H57   1.081529 S    
C32   H32   1.081782 S    
N53   O41   1.300908 A    
C166  C173  1.405187 A    
C70   C78   1.410019 A    
C37   C119  1.460211 S    
C153  C181  1.400284 A    
C88   C96   1.404486 A    
N48   O31   1.300869 A    
C71   N55   1.438355 S    
N14   N22   1.362502 A    
C3    H3    1.079033 S    
N11   Ni6   1.853745 S    
N43   O21   1.301575 A    
C4    N4    1.343284 A    
C5    N5    1.343093 A    
C54   C62   1.403474 A    
C19   C43   1.360303 A    
N51   O37   1.301468 A    
C160  C180  1.398243 A    
C61   C69   1.404230 A    
N39   O14   1.301692 A    
C122  C130  1.405156 A    
C151  C167  1.408779 A    
C79   C87   1.416765 A    
C152  C168  1.414825 A    
N18   Ni1   1.896149 S    
C111  H55   1.084346 S    
C148  C164  1.422462 A    
C149  C165  1.421650 A    
C176  H80   1.083009 S    
N1    Ni1   1.895139 S    
C118  C142  1.412877 A    
C30   N30   1.339121 A    
C56   H40   1.079856 S    
N4    Ni1   1.867413 S    
C50   H34   1.087807 S    
N52   O39   1.300382 A    
C17   H17   1.081607 S    
C22   C46   1.377996 A    
C36   C114  1.461693 S    
C81   C86   1.404629 A    
C54   H38   1.080676 S    
N28   Ni6   1.853370 S    
N56   O47   1.301992 A    
C163  C172  1.410000 A    
C20   H20   1.071236 S    
C21   H21   1.079564 S    
C115  C139  1.398140 A    
N33   O2    1.301046 A    
C23   H23   1.069553 S    
C123  N43   1.440447 S    
C24   H24   1.079862 S    
C171  H75   1.080425 S    
C179  H59   1.081040 S    
C27   N27   1.327840 A    
N6    Ni4   1.895138 S    
C29   H29   1.075457 S    
C176  C184  1.385214 A    
C7    C39   1.383261 A    
C98   C110  1.388186 A    
C70   N54   1.435167 S    
C114  C130  1.401442 A    
C24   C48   1.374565 A    
C121  C153  1.412347 A    
N16   N24   1.362512 A    
C116  C140  1.410673 A    
C57   C65   1.423474 A    
N34   O4    1.302679 A    
N45   O26   1.301572 A    
C125  C157  1.407967 A    
C147  C155  1.426195 A    
C173  C181  1.381482 A    
C120  C144  1.393175 A    
C30   C40   1.385935 A    
N42   O19   1.301488 A    
C85   C93   1.412608 A    
C52   H36   1.087306 S    
C180  H60   1.080439 S    
C83   C91   1.407651 A    
C181  H61   1.080841 S    
C55   H39   1.085528 S    
N7    N29   1.408928 A    
C32   C38   1.384464 A    
C110  H54   1.083931 S    
C183  H63   1.082577 S    
C53   C93   1.381252 A    
C6    H6    1.081343 S    
C95   C112  1.396986 A    
C96   C111  1.395322 A    
C172  C180  1.386244 A    
N50   O36   1.301022 A    
C44   C57   1.487803 S    
N14   Ni8   1.856968 S    
C19   N19   1.317810 A    
C139  N36   1.440726 S    
C103  H47   1.081828 S    
C138  C146  1.407520 A    
C38   C120  1.441341 S    
N15   Ni8   1.853745 S    
C107  H51   1.084375 S    
N44   O24   1.301460 A    
N35   O6    1.301450 A    
C105  H49   1.084576 S    
C13   H13   1.075013 S    
C75   C83   1.413134 A    
C10   N10   1.317746 A    
C18   C42   1.397354 A    
C35   C113  1.492952 S    
C169  C177  1.385364 A    
C71   C79   1.386022 A    
C33   C115  1.441526 S    
C82   C90   1.411309 A    
C47   C62   1.484917 S    
C1    N1    1.331411 A    
C50   C90   1.360401 A    
C14   N14   1.323514 A    
N2    N28   1.408965 A    
C4    C36   1.386981 A    
C135  H72   1.083830 S    
C172  H76   1.078502 S    
C136  H71   1.084427 S    
C173  H77   1.080712 S    
C66   C74   1.396180 A    
C7    N7    1.332709 A    
C7    H7    1.081367 S    
C8    N8    1.347364 A    
C132  H67   1.082585 S    
C133  H70   1.081946 S    
C12   C44   1.394690 A    
C23   N23   1.331466 A    
C59   C67   1.417650 A    
C3    C35   1.406095 A    
C104  C108  1.391213 A    
N46   O27   1.301299 A    
C126  C134  1.406795 A    
N11   N19   1.362511 A    
C15   C47   1.399974 A    
C31   C37   1.389605 A    
C123  C155  1.410231 A    
N9    Ni5   1.856967 S    
C13   N13   1.332504 A    
C121  C129  1.388983 A    
C122  C154  1.419064 A    
C124  N44   1.439021 S    
N5    Ni3   1.895139 S    
C10   C42   1.372811 A    
N54   O44   1.302020 A    
N49   O33   1.301766 A    
C14   C46   1.377151 A    
C93   C110  1.396984 A    
C154  C182  1.407999 A    
C65   C73   1.408471 A    
C26   H26   1.081142 S    
C134  H69   1.081927 S    
C16   C48   1.373683 A    
C56   C64   1.400631 A    
N36   O8    1.302131 A    
N55   O45   1.301164 A    
C6    N6    1.335696 A    
C27   C33   1.395195 A    
C130  H65   1.083641 S    
C124  C132  1.392562 A    
C143  C151  1.408361 A    
N41   O17   1.301018 A    
N37   O10   1.297015 A    
C140  N35   1.436111 S    
N7    Ni4   1.867409 S    
N1    N27   1.408963 A    
N27   Ni5   1.853367 S    
C41   C60   1.409938 S    
C102  C106  1.391510 A    
C126  N46   1.436692 S    
C150  C166  1.423760 A    
N13   Ni7   1.856967 S    
C15   N15   1.341584 A    
C16   N16   1.324956 A    
C68   C76   1.398924 A    
C113  C129  1.396614 A    
C104  H48   1.081689 S    
C164  C167  1.405239 A    
C127  C135  1.402787 A    
N16   Ni7   1.853748 S    
C42   C59   1.458272 S    
C73   C97   1.408634 A    
C79   C103  1.402772 A    
C161  C166  1.419911 A    
C18   H18   1.079257 S    
C1    H1    1.080772 S    
C82   C85   1.384878 A    
C163  C168  1.410952 A    
N47   O29   1.301200 A    
C98   H42   1.081504 S    
N10   Ni6   1.856968 S    
C17   C41   1.366131 A    
C22   H22   1.081372 S    
N3    Ni2   1.867409 S    
C34   C116  1.473452 S    
C159  C179  1.406288 A    
C146  C154  1.417614 A    
C184  H64   1.081420 S    
C31   N31   1.330231 A    
C62   C70   1.421417 A    
C11   C43   1.367784 A    
C67   C75   1.399185 A    
C142  C150  1.405658 A    
C147  C163  1.418869 A    
N48   O32   1.301033 A    
C97   C109  1.391202 A    
C17   N17   1.325612 A    
C128  N48   1.434329 S    
C118  C134  1.404582 A    
C86   C94   1.405384 A    
C78   C86   1.413422 A    
C51   C59   1.399157 A    
C161  C170  1.412811 A    
C49   C57   1.406321 A    
C108  H52   1.083990 S    
C26   C36   1.391665 A    
C60   C68   1.400048 A    
C150  C158  1.413530 A    
N24   Ni4   1.868351 S    
C169  H73   1.083222 S    
C112  H56   1.083969 S    
N31   Ni7   1.853367 S    
C174  C182  1.398633 A    
N53   O42   1.300854 A    
C156  C184  1.402776 A    
C25   N25   1.329836 A    
C64   C72   1.420563 A    
C157  C177  1.403331 A    
C27   H27   1.081454 S    
N52   O40   1.300858 A    
C170  C178  1.393626 A    
C29   N29   1.342292 A    
C114  C138  1.399876 A    
N56   O48   1.297987 A    
C116  C132  1.399462 A    
C11   N11   1.327781 A    
C12   H12   1.079222 S    
C72   C80   1.406731 A    
N33   O1    1.302121 A    
C125  C133  1.391995 A    
C144  C152  1.410989 A    
C65   N49   1.430993 S    
C76   C84   1.418676 A    
C123  C131  1.391757 A    
C89   C106  1.399062 A    
C77   C85   1.413446 A    
C52   C92   1.367597 A    
C151  C159  1.417075 A    
C121  N41   1.435408 S    
N35   O5    1.301228 A    
C80   C88   1.411060 A    
C2    N2    1.334316 A    
N17   Ni2   1.896148 S    
C48   C61   1.412165 S    
N2    Ni2   1.895138 S    
C69   C77   1.376654 A    
C174  H78   1.080744 S    
N45   O25   1.301515 A    
C68   N52   1.435713 S    
C52   C60   1.384198 A    
C145  C161  1.441691 A    
C119  C135  1.401993 A    
N42   O20   1.301117 A    
C117  C141  1.414015 A    
C128  C136  1.392667 A    
C141  N38   1.434296 S    
C74   C98   1.405096 A    
C54   C94   1.388216 A    
C67   N51   1.436877 S    
C120  C136  1.392423 A    
C10   H10   1.070235 S    
N55   O46   1.300863 A    
C74   C82   1.417428 A    
C32   N32   1.330316 A    
C39   C117  1.482408 S    
C77   C101  1.402749 A    
C20   N20   1.331654 A    
C73   C81   1.411538 A    
C30   H30   1.080794 S    
C115  C131  1.394610 A    
C6    C38   1.365388 A    
C46   C63   1.413612 S    
C94   C109  1.398521 A    
C87   C95   1.412110 A    
C75   C99   1.406989 A    
C155  C183  1.394293 A    
C102  H46   1.079685 S    
C125  N45   1.439455 S    
C131  H68   1.083717 S    
C1    C33   1.375304 A    
N9    N17   1.362504 A    
C66   N50   1.434847 S    
N4    N26   1.408926 A    
C21   C45   1.389646 A    
C109  H53   1.083955 S    
N3    N25   1.408928 A    
N8    N30   1.408926 A    
N47   O30   1.301313 A    
N30   Ni7   1.855677 S    
C100  C112  1.387823 A    
C101  H45   1.082115 S    
C101  C105  1.373312 A    
N15   N23   1.362511 A    
N23   Ni3   1.868349 S    
N51   O38   1.298961 A    
C164  C171  1.411110 A    
C18   N18   1.343146 A    
C84   C92   1.410262 A    
C165  C174  1.409813 A    
C28   N28   1.340685 A    
C137  C145  1.433911 A    
C167  C176  1.405624 A    
C78   C102  1.408354 A    
N46   O28   1.301064 A    
C129  H66   1.082069 S    
C106  H50   1.084021 S    
N12   N20   1.362512 A    
C162  C165  1.403907 A    
C19   H19   1.081494 S    
C137  N34   1.431710 S    
C2    H2    1.079690 S    
N34   O3    1.301936 A    
C56   C96   1.377966 A    
C53   C61   1.386554 A    
C25   C35   1.397039 A    
C43   C58   1.400793 S    
C148  C156  1.427866 A    
C83   C88   1.398723 A    
N32   Ni8   1.853370 S    
C84   C87   1.390165 A    
N40   O16   1.300986 A    
C152  C160  1.426354 A    
C142  N37   1.448419 S    
N38   O11   1.302225 A    
C140  C148  1.420693 A    
N19   Ni1   1.868349 S    
C40   C118  1.487374 S    
N12   Ni5   1.853748 S    
C63   C71   1.402654 A    
N50   O35   1.301063 A    
C76   C100  1.405054 A    
C15   H15   1.075518 S    
C122  N42   1.437527 S    
C16   H16   1.080018 S    
C51   H35   1.084024 S    
N37   O9    1.302315 A    
C113  C137  1.422700 A    
C100  H44   1.081659 S    
C49   H33   1.079678 S    
C80   C104  1.407629 A    
C127  C159  1.417357 A    
N25   Ni6   1.855677 S    
C20   C44   1.387366 A    
N8    Ni3   1.867413 S    
C55   C95   1.381217 A    
N44   O23   1.301481 A    
C9    H9    1.081586 S    
C91   C108  1.398870 A    
N10   N18   1.362502 A    
C53   H37   1.085409 S    
C162  C169  1.405130 A    
C50   C58   1.380138 A    
N20   Ni2   1.868351 S    
C45   C64   1.474995 S    
