data_mof_unit_pretest_1146.cif
_audit_creation_date              2012-12-10T16:52:40-0500
_audit_creation_method            fapswitch 2.2
_symmetry_space_group_name_H-M    P1
_symmetry_Int_Tables_number       1
_space_group_crystal_system       triclinic
_cell_length_a                    7.833008
_cell_length_b                    8.621738
_cell_length_c                    13.790488
_cell_angle_alpha                 93.51873
_cell_angle_beta                  93.184167
_cell_angle_gamma                 93.972629
_cell_volume                      925.665734214

loop_
_atom_site_label
_atom_site_type_symbol
_atom_type_description
_atom_site_fract_x
_atom_site_fract_y
_atom_site_fract_z
_atom_type_partial_charge
C1    C     C_R   0.044809 0.794413 0.498859 0.878697
C2    C     C_R   0.936927 0.489131 0.317955 0.866988
C3    C     C_R   0.100515 0.547674 0.785427 -0.070588
C4    C     C_R   0.907812 0.482353 0.212918 -0.057642
C5    C     C_R   0.079248 0.714843 0.930478 -0.186970
C6    C     C_R   0.967292 0.380551 0.052489 -0.188293
C7    C     C_R   0.013379 0.657900 0.838208 -0.190204
C8    C     C_R   0.015031 0.405213 0.151219 -0.194759
C9    C     C_R   0.247955 0.491294 0.825578 -0.274224
C10   C     C_R   0.762237 0.545880 0.175182 -0.265841
C11   C     C_R   0.327102 0.559950 0.912079 0.088617
C12   C     C_R   0.955196 0.205589 0.501186 0.877325
C13   C     C_R   0.712346 0.524290 0.076448 0.083201
C14   C     C_R   0.237286 0.668557 0.967132 0.173055
C15   C     C_R   0.813226 0.434104 0.015511 0.177865
C16   C     C_R   0.493359 0.523921 0.944353 0.062505
C17   C     C_R   0.557581 0.579293 0.038885 0.061201
C18   C     C_R   0.465053 0.687434 0.092615 -0.227581
C19   C     C_R   0.599306 0.438258 0.884092 -0.232301
C20   C     C_R   0.308108 0.731922 0.056685 -0.222676
C21   C     C_R   0.757170 0.395404 0.919217 -0.219067
C22   C     C_2   0.068024 0.958707 0.511790 0.179194
C23   C     C_2   0.931962 0.041289 0.488296 0.179304
C24   C     C_R   0.063754 0.513936 0.681932 0.866992
H1    H     H_    0.241995 0.816311 0.099233 0.149860
H2    H     H_    0.566196 0.406452 0.808224 0.161713
H3    H     H_    0.487477 0.374411 0.427818 0.190889
H4    H     H_    0.512528 0.625545 0.572217 0.191611
H5    H     H_    0.296404 0.947638 0.576232 0.341739
H6    H     H_    0.703507 0.052328 0.423922 0.340561
H7    H     H_    0.834060 0.328799 0.871253 0.153020
H8    H     H_    0.683122 0.602833 0.225783 0.168090
H9    H     H_    0.302364 0.397634 0.785123 0.160865
H10   H     H_    0.130211 0.357322 0.179918 0.159038
H11   H     H_    0.898494 0.703217 0.807076 0.160936
H12   H     H_    0.010568 0.799278 0.971342 0.139983
H13   H     H_    0.047270 0.315030 0.005823 0.142557
H14   H     H_    0.513961 0.744910 0.161173 0.157640
N1    N     N_2   0.440860 0.456490 0.474790 -0.156570
N2    N     N_2   0.559140 0.543510 0.525210 -0.157343
O1    O     O_R   0.891570 0.738930 0.506190 -0.554277
O2    O     O_3   0.781200 0.971444 0.442056 -0.775396
O3    O     O_R   0.108430 0.261070 0.493810 -0.553977
O4    O     O_R   0.174650 0.711050 0.490030 -0.639813
O5    O     O_R   0.825350 0.288950 0.509970 -0.640473
O6    O     O_R   0.909850 0.521900 0.644940 -0.624374
O7    O     O_R   0.090150 0.478100 0.355060 -0.621095
O8    O     O_R   0.192930 0.494020 0.628780 -0.610607
O9    O     O_R   0.807070 0.505980 0.371220 -0.616322
O10   O     O_3   0.218768 0.028542 0.558050 -0.774459
Zn1   Zn    Zn3+2 0.810990 0.518620 0.510790 0.968774
Zn2   Zn    Zn3+2 0.189010 0.481380 0.489210 0.972630

loop_
_geom_bond_atom_site_label_1
_geom_bond_atom_site_label_2
_ccdc_geom_bond_type
C2    C4    S    
O7    Zn2   S    
C3    C9    A    
C2    O9    A    
C14   C20   A    
C2    O7    A    
N2    Zn1   S    
C9    C11   A    
C11   C16   A    
C1    O4    A    
C18   C20   A    
C13   C17   A    
C22   O10   S    
C24   O6    A    
O4    Zn2   S    
N1    Zn2   S    
C5    C14   A    
C6    H13   S    
C1    C22   S    
C8    H10   S    
C9    H9    S    
C21   H7    S    
C12   C23   S    
C3    C24   S    
C16   C17   A    
C23   O2    S    
C16   C19   A    
C1    O1    A    
C19   C21   A    
C17   C18   A    
C12   O3    A    
C3    C7    A    
H5    O10   S    
C13   C15   A    
C18   H14   S    
C11   C14   A    
O3    Zn2   S    
C20   H1    S    
H4    N2    S    
N1    N2    D    
C4    C10   A    
C24   O8    A    
C5    H12   S    
C10   H8    S    
C15   C21   A    
C4    C8    A    
C5    C7    A    
C19   H2    S    
O5    Zn1   S    
C22   C23   D    
H6    O2    S    
C6    C8    A    
C6    C15   A    
O8    Zn2   S    
C7    H11   S    
O6    Zn1   S    
O1    Zn1   S    
H3    N1    S    
C12   O5    A    
O9    Zn1   S    
C10   C13   A    
