data_mof_unit_pretest_494.cif
_audit_creation_date              2012-12-10T17:44:36-0500
_audit_creation_method            fapswitch 2.2
_symmetry_space_group_name_H-M    P1
_symmetry_Int_Tables_number       1
_space_group_crystal_system       triclinic
_cell_length_a                    9.987848
_cell_length_b                    10.670859
_cell_length_c                    15.429945
_cell_angle_alpha                 94.377064
_cell_angle_beta                  67.292005
_cell_angle_gamma                 89.278966
_cell_volume                      1511.02579381

loop_
_atom_site_label
_atom_site_type_symbol
_atom_type_description
_atom_site_fract_x
_atom_site_fract_y
_atom_site_fract_z
_atom_type_partial_charge
Br1   Br    Br    0.978400 0.238800 0.020854 -0.476605
Br2   Br    Br    0.834970 0.848651 0.392932 -0.511598
Br3   Br    Br    0.932576 0.134735 0.558949 -0.513494
Br4   Br    Br    0.174816 0.725271 0.682972 -0.431759
C1    C     C_R   0.508032 0.736154 0.484805 0.996719
C2    C     C_R   0.708545 0.370868 0.037089 0.027625
C3    C     C_R   0.576462 0.441485 0.089021 -0.081728
C4    C     C_R   0.408703 0.495621 0.675874 1.010687
C5    C     C_R   0.806714 0.347279 0.080510 0.344970
C6    C     C_R   0.774142 0.396139 0.173357 -0.288768
C7    C     C_R   0.557851 0.503872 0.176267 0.571356
C8    C     C_R   0.288172 0.879785 0.435962 -0.143721
C9    C     C_R   0.156455 0.944930 0.456342 -0.174739
C10   C     C_R   0.123595 0.057887 0.513275 0.283399
C11   C     C_R   0.230588 0.113589 0.538218 -0.170554
C12   C     C_R   0.404825 0.445731 0.914518 0.026232
C13   C     C_R   0.373431 0.058450 0.502914 0.062028
C14   C     C_R   0.393134 0.932874 0.466199 0.065255
C15   C     C_R   0.518617 0.865489 0.460303 -0.201323
C16   C     C_R   0.498059 0.259436 0.503251 0.852860
C17   C     C_R   0.644818 0.929759 0.448784 0.297682
C18   C     C_R   0.634351 0.058773 0.467191 -0.151490
C19   C     C_R   0.498712 0.123529 0.498726 -0.147818
C20   C     C_R   0.794738 0.698202 0.603457 0.568379
C21   C     C_R   0.839990 0.809689 0.631085 0.608581
C22   C     C_R   0.976926 0.815048 0.629558 -0.401015
C23   C     C_R   0.259549 0.484930 0.973224 0.035886
C24   C     C_R   0.069471 0.707959 0.602627 0.221168
C25   C     C_R   0.040102 0.598801 0.551456 0.020838
C26   C     C_R   0.895182 0.597105 0.551239 -0.082547
C27   C     C_R   0.960035 0.409553 0.450061 -0.030051
C28   C     C_R   0.591700 0.497379 0.323818 0.905131
C29   C     C_R   0.102080 0.409147 0.450496 -0.047998
C30   C     C_R   0.351462 0.483331 0.777474 -0.161388
C31   C     C_R   0.648708 0.473083 0.221482 -0.192831
C32   C     C_R   0.159442 0.513024 0.932936 0.678202
C33   C     C_R   0.204791 0.509059 0.835266 -0.218536
C34   C     C_R   0.505136 0.415155 0.954964 0.100118
C35   C     C_R   0.448750 0.447874 0.817108 -0.204979
C36   C     C_R   0.467524 0.448651 0.051933 0.114719
C37   C     C_R   0.320511 0.481324 0.109735 -0.139282
C38   C     C_R   0.217625 0.496930 0.070882 -0.143950
C39   C     C_R   0.640419 0.350865 0.902302 -0.191293
C40   C     C_R   0.737970 0.325336 0.943804 -0.097950
F1    F     F_    0.650549 0.690136 0.642263 -0.591150
F2    F     F_    0.742696 0.907437 0.674079 -0.565262
F3    F     F_    0.453929 0.597737 0.217487 -0.671534
F4    F     F_    0.019417 0.549043 0.987858 -0.653538
H1    H     H_    0.106150 0.522332 0.117472 0.208974
H2    H     H_    0.837785 0.272209 0.901259 0.199534
H3    H     H_    0.126242 0.530854 0.805613 0.213017
H4    H     H_    0.561303 0.429176 0.771194 0.183304
H5    H     H_    0.281521 0.489662 0.185785 0.203030
H6    H     H_    0.669909 0.312868 0.830137 0.176425
H7    H     H_    0.308146 0.789154 0.395478 0.209433
H8    H     H_    0.076476 0.902639 0.434041 0.211968
H9    H     H_    0.200006 0.198856 0.585174 0.190298
H10   H     H_    0.733243 0.108282 0.454229 0.214888
H11   H     H_    0.932579 0.335056 0.409042 0.144702
H12   H     H_    0.001982 0.899581 0.663056 0.257040
H13   H     H_    0.180199 0.334251 0.409914 0.145503
H14   H     H_    0.843518 0.369863 0.208990 0.194542
N1    N     N_R   0.856800 0.501200 0.500850 -0.082002
N2    N     N_R   0.142390 0.501280 0.500880 -0.088771
O1    O     O_R   0.385310 0.683220 0.500000 -0.602599
O2    O     O_R   0.614640 0.683250 0.500010 -0.523623
O3    O     O_R   0.319840 0.499980 0.632240 -0.592195
O4    O     O_R   0.549160 0.500000 0.632250 -0.541013
O5    O     O_R   0.385360 0.316750 0.499990 -0.641492
O6    O     O_R   0.614690 0.316780 0.500000 -0.615746
O7    O     O_R   0.450840 0.500000 0.367750 -0.585168
O8    O     O_R   0.680160 0.500020 0.367760 -0.623411
Zn1   Zn    Zn3+2 0.346880 0.499980 0.499990 0.998382
Zn2   Zn    Zn3+2 0.653120 0.500020 0.500010 1.040050

loop_
_geom_bond_atom_site_label_1
_geom_bond_atom_site_label_2
_ccdc_geom_bond_type
C30   C33   A    
C37   C38   A    
C7    F3    S    
C2    C5    A    
C28   O8    A    
C3    C7    A    
C13   C19   A    
C20   F1    S    
C32   C33   A    
C15   C17   A    
C33   H3    S    
O4    Zn2   S    
O2    Zn2   S    
O1    Zn1   S    
C14   C15   A    
C27   H11   S    
O6    Zn2   S    
N2    Zn1   S    
C27   C29   A    
O5    Zn1   S    
C6    C31   A    
O3    Zn1   S    
C5    C6    A    
C9    H8    S    
C12   C23   A    
C35   H4    S    
C25   N2    A    
C2    C40   A    
C17   C18   A    
C11   H9    S    
C16   O6    A    
C6    H14   S    
Br4   C24   S    
C28   O7    A    
C30   C35   A    
C28   C31   S    
C27   N1    A    
Br1   C5    S    
C20   C21   A    
C1    O1    A    
O7    Zn1   S    
C38   H1    S    
C21   C22   A    
C39   C40   A    
C25   C26   A    
C39   H6    S    
C16   C19   S    
C3    C36   A    
Br2   C17   S    
C13   C14   A    
C4    C30   S    
C37   H5    S    
Br3   C10   S    
O8    Zn2   S    
C36   C37   A    
C4    O4    A    
C16   O5    A    
C40   H2    S    
C11   C13   A    
C24   C25   A    
C10   C11   A    
C1    O2    A    
C18   H10   S    
C2    C3    A    
C1    C15   S    
N1    Zn2   S    
C23   C32   A    
C22   C24   A    
C7    C31   A    
C34   C39   A    
C34   C36   A    
C23   C38   A    
C29   N2    A    
C26   N1    A    
C32   F4    S    
C20   C26   A    
C8    H7    S    
C12   C35   A    
C8    C9    A    
C4    O3    A    
C29   H13   S    
C8    C14   A    
C18   C19   A    
C9    C10   A    
C22   H12   S    
C21   F2    S    
C12   C34   A    
