data_mof_unit_pretest_4.cif
_audit_creation_date              2012-12-10T19:35:01-0500
_audit_creation_method            fapswitch 2.2
_symmetry_space_group_name_H-M    P1
_symmetry_Int_Tables_number       1
_space_group_crystal_system       triclinic
_cell_length_a                    10.876118
_cell_length_b                    15.862925
_cell_length_c                    17.117417
_cell_angle_alpha                 94.911799
_cell_angle_beta                  91.332405
_cell_angle_gamma                 89.779397
_cell_volume                      2941.5715247

loop_
_atom_site_label
_atom_site_type_symbol
_atom_type_description
_atom_site_fract_x
_atom_site_fract_y
_atom_site_fract_z
_atom_type_partial_charge
C1    C     C_R   0.496644 0.490565 0.349286 0.849456
C2    C     C_R   0.499180 0.509516 0.651443 0.976764
C3    C     C_R   0.492877 0.486614 0.264091 -0.185844
C4    C     C_R   0.493099 0.513587 0.737757 -0.134679
C5    C     C_R   0.400710 0.528706 0.222659 0.274676
C6    C     C_R   0.489192 0.439444 0.777713 0.229816
C7    C     C_R   0.405982 0.526775 0.140186 0.380323
C8    C     C_R   0.469821 0.446182 0.859349 0.287058
C9    C     C_R   0.503010 0.482047 0.100435 0.241164
C10   C     C_R   0.473658 0.526754 0.901984 0.284325
C11   C     C_R   0.590202 0.437151 0.142815 0.050124
C12   C     C_R   0.480803 0.600301 0.861910 0.059413
C13   C     C_R   0.584198 0.439956 0.224115 -0.293170
C14   C     C_R   0.488738 0.593051 0.780360 -0.329207
C15   C     C_R   0.456029 0.754255 0.452213 0.532434
C16   C     C_R   0.564001 0.249819 0.539860 0.570382
C17   C     C_R   0.446764 0.843331 0.457875 -0.083645
C18   C     C_R   0.568179 0.160259 0.541003 -0.145400
C19   C     C_R   0.505044 0.890988 0.522029 0.252010
C20   C     C_R   0.494390 0.110233 0.485456 0.290227
C21   C     C_R   0.567372 0.846955 0.579236 0.277892
C22   C     C_R   0.417489 0.151426 0.433061 0.267343
C23   C     C_R   0.262373 0.502904 0.506274 0.858842
C24   C     C_R   0.737625 0.498158 0.500931 1.001457
C25   C     C_R   0.571169 0.757245 0.571572 -0.141206
C26   C     C_R   0.412356 0.240851 0.437938 -0.159848
C27   C     C_R   0.129052 0.412859 0.627533 0.422772
C28   C     C_R   0.883086 0.576469 0.386472 0.424667
C29   C     C_R   0.061814 0.367636 0.678932 -0.273906
C30   C     C_R   0.940819 0.643541 0.353226 -0.248885
C31   C     C_R   0.935878 0.375942 0.682094 -0.283192
C32   C     C_R   0.044956 0.680916 0.389440 -0.262856
C33   C     C_R   0.872535 0.426003 0.631017 0.425109
C34   C     C_R   0.101759 0.645118 0.453339 0.419872
C35   C     C_R   0.935285 0.459025 0.568203 -0.051810
C36   C     C_R   0.058501 0.566598 0.475550 -0.042539
C37   C     C_R   0.066360 0.458563 0.570077 -0.022170
C38   C     C_R   0.937173 0.544011 0.454310 -0.045607
C39   C     C_R   0.872035 0.495563 0.505213 -0.149060
C40   C     C_R   0.128588 0.510936 0.519788 -0.102263
Cu1   Cu    Cu3+1 0.493970 0.415220 0.496180 1.039208
Cu2   Cu    Cu3+1 0.506030 0.584780 0.503820 1.004535
H1    H     H_    0.079632 0.738834 0.368990 0.156722
H2    H     H_    0.888042 0.346766 0.727585 0.157766
H3    H     H_    0.617633 0.723579 0.616050 0.156002
H4    H     H_    0.352996 0.272862 0.398307 0.154569
H5    H     H_    0.108184 0.331411 0.721720 0.157278
H6    H     H_    0.900657 0.670381 0.302422 0.152880
H7    H     H_    0.652527 0.406506 0.256875 0.199575
H8    H     H_    0.491758 0.650236 0.750068 0.190606
N1    N     N_2   0.512925 0.476424 0.017606 -0.158238
N2    N     N_2   0.465198 0.535977 0.984870 -0.152012
N3    N     N_R   0.515100 0.712130 0.509560 -0.227941
N4    N     N_R   0.484900 0.287870 0.490440 -0.205959
N5    N     N_2   0.495290 0.981539 0.534426 -0.189419
N6    N     N_2   0.505453 0.019865 0.473963 -0.192548
O1    O     O_R   0.494360 0.420530 0.382500 -0.600447
O2    O     O_R   0.505640 0.579470 0.617500 -0.621728
O3    O     O_R   0.504550 0.563720 0.388950 -0.547712
O4    O     O_R   0.495450 0.436280 0.611050 -0.436070
O5    O     O_R   0.314560 0.428400 0.496770 -0.559900
O6    O     O_R   0.685440 0.571600 0.503230 -0.571173
O7    O     O_R   0.324750 0.571590 0.503220 -0.573111
O8    O     O_R   0.675250 0.428410 0.496780 -0.537142
C41   C     C_3   0.652008 0.120444 0.600346 -0.342691
C42   C     C_3   0.767061 0.081890 0.562095 -0.762821
H9    H     H_    0.827094 0.055527 0.607412 0.248711
H10   H     H_    0.742782 0.030009 0.516827 0.274977
H11   H     H_    0.819181 0.131118 0.534477 0.227488
H12   H     H_    0.681191 0.167162 0.649122 0.198907
H13   H     H_    0.602401 0.072672 0.630938 0.262945
C43   C     C_3   0.361964 0.883547 0.399536 -0.308057
C44   C     C_3   0.427395 0.895921 0.323349 -0.671908
H14   H     H_    0.364188 0.927525 0.283113 0.237614
H15   H     H_    0.455215 0.833884 0.293963 0.259948
H16   H     H_    0.510538 0.935787 0.334846 0.255342
H17   H     H_    0.279948 0.842987 0.385564 0.194078
H18   H     H_    0.322710 0.944186 0.424660 0.244636
O9    O     O_3   0.622688 0.892923 0.642534 -0.720574
H19   H     H_    0.662195 0.853220 0.677198 0.318449
O10   O     O_3   0.348402 0.102894 0.377586 -0.731015
H20   H     H_    0.299887 0.140871 0.345516 0.321079
O11   O     O_3   0.254655 0.417777 0.637684 -0.728156
H21   H     H_    0.282165 0.380360 0.678200 0.346733
O12   O     O_3   0.777485 0.540382 0.352276 -0.762405
H22   H     H_    0.753102 0.570722 0.306009 0.323362
O13   O     O_3   0.752961 0.449430 0.646515 -0.733455
H23   H     H_    0.727525 0.426339 0.695676 0.341729
O14   O     O_3   0.181950 0.692547 0.502863 -0.714754
H24   H     H_    0.190835 0.749540 0.483985 0.307750
O15   O     O_3   0.505343 0.361562 0.736506 -0.709659
H25   H     H_    0.542066 0.321882 0.772208 0.328360
O16   O     O_3   0.303100 0.569738 0.260076 -0.726059
H26   H     H_    0.293123 0.548823 0.312371 0.311211
O17   O     O_3   0.442033 0.375971 0.898153 -0.723060
H27   H     H_    0.402573 0.332739 0.860610 0.328823
O18   O     O_3   0.315054 0.564179 0.096812 -0.710470
H28   H     H_    0.255692 0.594921 0.131782 0.370155
C45   C     C_3   0.692146 0.386725 0.101990 -0.358432
C46   C     C_3   0.645414 0.300897 0.066595 -0.765126
H29   H     H_    0.609485 0.263858 0.113319 0.246640
H30   H     H_    0.571266 0.308834 0.022175 0.293299
H31   H     H_    0.722107 0.265012 0.037634 0.232321
H32   H     H_    0.731329 0.422533 0.055412 0.212336
H33   H     H_    0.768992 0.375899 0.143987 0.200900
C47   C     C_3   0.479384 0.687389 0.905473 -0.369497
C48   C     C_3   0.348929 0.713582 0.928113 -0.754765
H34   H     H_    0.288989 0.714562 0.874746 0.249763
H35   H     H_    0.309828 0.669156 0.967614 0.287248
H36   H     H_    0.350403 0.777977 0.959151 0.233060
H37   H     H_    0.539679 0.688535 0.958871 0.211362
H38   H     H_    0.516665 0.735232 0.868528 0.197696
O19   O     O_3   0.641687 0.300719 0.587127 -0.651224
H39   H     H_    0.724773 0.274953 0.584688 0.301125
O20   O     O_3   0.401103 0.711057 0.387869 -0.710360
H40   H     H_    0.352262 0.665637 0.407232 0.369862

loop_
_geom_bond_atom_site_label_1
_geom_bond_atom_site_label_2
_ccdc_geom_bond_type
C42   H10   S    
O13   H23   S    
O16   H26   S    
C27   C29   A    
C48   H35   S    
C44   H14   S    
C2    C4    S    
O17   H27   S    
C9    N1    S    
Cu1   O5    S    
C20   N6    S    
C10   N2    S    
C16   O19   S    
Cu2   O2    S    
O18   H28   S    
C47   H38   S    
O12   H22   S    
C18   C41   S    
C29   H5    S    
C15   N3    A    
C30   H6    S    
C35   C37   A    
C25   N3    A    
C37   C40   A    
C1    O3    A    
Cu2   N3    S    
C38   C39   A    
C2    O4    A    
C42   H11   S    
C47   C48   S    
O20   H40   S    
C24   C39   S    
C11   C45   S    
Cu1   Cu2   S    
C43   H18   S    
C33   C35   A    
C45   C46   S    
C23   C40   S    
C48   H34   S    
C31   C33   A    
C30   C32   A    
Cu2   O6    S    
C18   C20   A    
C3    C13   A    
C23   O7    A    
C45   H32   S    
C24   O8    A    
C44   H15   S    
C8    O17   S    
C26   N4    A    
O10   H20   S    
C47   H37   S    
C45   H33   S    
C31   H2    S    
N1    N2    D    
C22   O10   S    
C36   C40   A    
C4    C6    A    
O15   H25   S    
C5    C7    A    
C6    C8    A    
C41   H13   S    
C46   H31   S    
C1    C3    S    
C32   C34   A    
C35   C39   A    
C43   H17   S    
C1    O1    A    
O11   H21   S    
C28   C38   A    
C21   O9    S    
N5    N6    D    
C46   H30   S    
C9    C11   A    
C10   C12   A    
C13   H7    S    
C16   C18   A    
C12   C14   A    
C48   H36   S    
C15   O20   S    
C36   C38   A    
O14   H24   S    
C25   H3    S    
O19   H39   S    
C19   N5    S    
C15   C17   A    
C21   C25   A    
C24   O6    A    
C7    O18   S    
C19   C21   A    
Cu1   O4    S    
C20   C22   A    
C43   C44   S    
C3    C5    A    
Cu2   O3    S    
C5    O16   S    
C2    O2    A    
C27   O11   S    
C33   O13   S    
C34   O14   S    
Cu1   O1    S    
C29   C31   A    
C12   C47   S    
C11   C13   A    
C14   H8    S    
C27   C37   A    
C28   C30   A    
C46   H29   S    
C17   C19   A    
C32   H1    S    
C42   H9    S    
C34   C36   A    
C4    C14   A    
C16   N4    A    
Cu1   N4    S    
C26   H4    S    
O9    H19   S    
C7    C9    A    
C23   O5    A    
C44   H16   S    
C17   C43   S    
C8    C10   A    
C41   C42   S    
C22   C26   A    
C28   O12   S    
Cu1   O8    S    
C41   H12   S    
Cu2   O7    S    
C6    O15   S    
