data_mof_unit_pretest_113.cif
_audit_creation_date              2012-12-11T16:33:30-0500
_audit_creation_method            fapswitch 2.2
_symmetry_space_group_name_H-M    P1
_symmetry_Int_Tables_number       1
_space_group_crystal_system       triclinic
_cell_length_a                    6.943602
_cell_length_b                    18.261721
_cell_length_c                    20.145568
_cell_angle_alpha                 68.444993
_cell_angle_beta                  90.60132
_cell_angle_gamma                 90.72552
_cell_volume                      2375.61512032

loop_
_atom_site_label
_atom_site_type_symbol
_atom_type_description
_atom_site_fract_x
_atom_site_fract_y
_atom_site_fract_z
_atom_type_partial_charge
O1    O     O_R   0.488960 0.443750 0.941980 -0.537355
O2    O     O_R   0.823890 0.406510 0.087590 -0.538183
O3    O     O_R   0.999680 0.556250 0.058020 -0.536611
C1    C     C_R   0.655107 0.383559 0.115094 0.693961
O4    O     O_R   0.818360 0.434410 0.944340 -0.538967
O5    O     O_R   0.994110 0.584350 0.913750 -0.536383
C2    C     C_R   0.648794 0.420336 0.923791 0.722394
O6    O     O_R   0.494530 0.415650 0.086250 -0.536209
O7    O     O_3   0.662590 0.549160 0.990130 -0.368051
V1    V     V_3+5 0.935320 0.490880 0.001830 1.425636
O8    O     O_R   0.324180 0.593490 0.912410 -0.538981
C3    C     C_R   0.155206 0.616472 0.884920 0.693050
O9    O     O_R   0.329720 0.565590 0.055660 -0.539754
C4    C     C_R   0.162069 0.579632 0.076260 0.724028
V2    V     V_3+5 0.435990 0.509120 0.998170 1.422500
O10   O     O_3   0.158850 0.450840 0.009870 -0.366457
C5    C     C_3   0.045364 0.705486 0.311976 -0.138675
C6    C     C_3   0.232523 0.682421 0.283361 -0.138537
H1    H     H_    0.314425 0.627383 0.309922 0.104109
H2    H     H_    0.972717 0.669877 0.362594 0.106328
H3    H     H_    0.461156 0.782324 0.277378 0.109489
C7    C     C_1   0.155546 0.625119 0.122055 -0.193965
C8    C     C_1   0.110741 0.873840 0.378623 -0.194908
C9    C     C_3   0.953793 0.730601 0.236426 -0.140953
C10   C     C_3   0.140845 0.708168 0.208434 0.171272
C11   C     C_3   0.034185 0.815290 0.218354 -0.138673
C12   C     C_3   0.125852 0.789587 0.293268 0.171527
C13   C     C_3   0.221325 0.792247 0.189761 -0.138490
C14   C     C_3   0.312908 0.767127 0.265296 -0.141537
C15   C     C_1   0.149207 0.662647 0.160854 -0.067238
C16   C     C_1   0.117349 0.835659 0.340385 -0.068313
H4    H     H_    0.293992 0.827828 0.139143 0.107332
H5    H     H_    0.952238 0.870308 0.191795 0.103030
H6    H     H_    0.805551 0.715389 0.224352 0.109169
H7    H     H_    0.438650 0.547592 0.693698 0.113307
C17   C     C_R   0.986489 0.764521 0.875340 -0.131077
C18   C     C_R   0.902248 0.834476 0.872426 -0.123917
C19   C     C_R   0.889156 0.897742 0.807910 -0.126642
C20   C     C_R   0.960390 0.891568 0.745818 -0.141158
C21   C     C_R   0.044728 0.820940 0.746823 0.068383
C22   C     C_R   0.057879 0.755997 0.813003 0.069638
C23   C     C_R   0.119181 0.814969 0.683674 -0.186300
C24   C     C_R   0.206334 0.743887 0.686780 0.069521
C25   C     C_R   0.219452 0.678936 0.752958 0.068399
C26   C     C_R   0.145138 0.684929 0.816122 -0.186484
C27   C     C_R   0.277593 0.735352 0.624429 -0.131001
C28   C     C_R   0.361552 0.665355 0.627315 -0.123691
C29   C     C_R   0.374567 0.602072 0.691824 -0.126549
C30   C     C_R   0.303559 0.608275 0.753938 -0.141097
H8    H     H_    0.996432 0.717722 0.927156 0.104970
H9    H     H_    0.848196 0.839801 0.920647 0.110941
H10   H     H_    0.824847 0.952190 0.806011 0.113781
H11   H     H_    0.949698 0.943085 0.697364 0.112844
H12   H     H_    0.267714 0.782175 0.572624 0.104555
H13   H     H_    0.415442 0.660009 0.579080 0.110449
H14   H     H_    0.314186 0.556749 0.802386 0.112345
C31   C     C_R   0.726077 0.097670 0.254943 -0.142842
C32   C     C_R   0.783235 0.086434 0.193310 -0.122617
C33   C     C_R   0.794516 0.150024 0.128919 -0.120388
C34   C     C_R   0.748941 0.225356 0.125668 -0.135867
C35   C     C_R   0.692431 0.238817 0.187508 0.066481
C36   C     C_R   0.680572 0.173607 0.253546 0.068977
C37   C     C_R   0.644352 0.315386 0.184063 -0.165564
C38   C     C_R   0.585305 0.326731 0.246827 0.072047
C39   C     C_R   0.575257 0.261687 0.312981 0.005977
C40   C     C_R   0.621161 0.184942 0.316270 -0.158204
C41   C     C_R   0.538672 0.402542 0.245303 -0.211129
C42   C     C_R   0.486688 0.414246 0.307202 -0.214026
C43   C     C_R   0.485061 0.351228 0.372810 0.481849
C44   C     C_R   0.523745 0.275431 0.375168 -0.211733
H15   H     H_    0.717014 0.046029 0.303410 0.107867
H16   H     H_    0.817842 0.027946 0.195478 0.108981
H17   H     H_    0.837751 0.140899 0.081081 0.109469
H18   H     H_    0.757393 0.272601 0.074055 0.101480
H19   H     H_    0.543120 0.453872 0.196475 0.132224
H20   H     H_    0.449338 0.472788 0.304198 0.118479
H21   H     H_    0.517281 0.227989 0.426742 0.119784
O11   O     O_R   0.770540 0.084530 0.414050 -0.537149
O12   O     O_R   0.445710 0.065660 0.555720 -0.536121
O13   O     O_R   0.270420 0.915650 0.586190 -0.536808
C45   C     C_R   0.615062 0.079766 0.576405 0.725738
O14   O     O_R   0.441140 0.093540 0.412470 -0.536753
O15   O     O_R   0.265820 0.943740 0.441930 -0.537316
C46   C     C_R   0.610062 0.116681 0.385175 0.693248
O16   O     O_R   0.775150 0.056440 0.558310 -0.538678
O17   O     O_3   0.602370 0.950960 0.510050 -0.369150
V3    V     V_3+5 0.329450 0.009140 0.498150 1.434001
O18   O     O_R   0.935790 0.934280 0.444060 -0.540593
C47   C     C_R   0.103682 0.920045 0.423792 0.721331
O19   O     O_R   0.940370 0.906390 0.587310 -0.539179
C48   C     C_R   0.109270 0.883455 0.614898 0.692338
V4    V     V_3+5 0.828810 0.990710 0.501460 1.422814
O20   O     O_3   0.105780 0.049100 0.489960 -0.364719
C49   C     C_3   0.722943 0.319354 0.717446 -0.138453
C50   C     C_3   0.540106 0.291263 0.688411 -0.140401
H22   H     H_    0.465060 0.324797 0.637538 0.116445
H23   H     H_    0.798698 0.376525 0.691363 0.107321
H24   H     H_    0.298766 0.275091 0.775388 0.109510
C51   C     C_1   0.624557 0.125340 0.622039 -0.190663
C52   C     C_1   0.638684 0.374752 0.878143 -0.195794
C53   C     C_3   0.813415 0.236977 0.735834 -0.135612
C54   C     C_3   0.630619 0.209465 0.707504 0.173349
C55   C     C_3   0.722382 0.209517 0.811115 -0.142259
C56   C     C_3   0.631833 0.291265 0.792092 0.170896
C57   C     C_3   0.539512 0.181429 0.782135 -0.138840
C58   C     C_3   0.449042 0.263817 0.763698 -0.141151
C59   C     C_1   0.628622 0.163216 0.660554 -0.073134
C60   C     C_1   0.634115 0.337033 0.839483 -0.067855
H25   H     H_    0.463896 0.124270 0.808563 0.108215
H26   H     H_    0.797468 0.176026 0.861982 0.106488
H27   H     H_    0.963634 0.225805 0.723992 0.110634
O21   O     O_3   0.433309 0.361646 0.434913 -0.575658
C61   C     C_3   0.579048 0.404293 0.455374 0.046985
H28   H     H_    0.513409 0.428462 0.492980 0.141723
H29   H     H_    0.634607 0.455922 0.409831 0.106925
C62   C     C_3   0.745103 0.350206 0.493977 -0.316812
H30   H     H_    0.686922 0.300109 0.539759 0.206100
H31   H     H_    0.815974 0.326352 0.457105 0.195045
C63   C     C_3   0.895616 0.394154 0.521207 -0.804998
H32   H     H_    0.961958 0.442471 0.475751 0.234470
H33   H     H_    0.010408 0.352847 0.550715 0.240415
H34   H     H_    0.828609 0.419254 0.557846 0.216064

loop_
_geom_bond_atom_site_label_1
_geom_bond_atom_site_label_2
_ccdc_geom_bond_type
C25   C30   A    
O15   V3    S    
C53   C54   S    
C12   C14   S    
C50   H22   S    
C1    O6    A    
O12   V3    S    
O19   C48   A    
C31   C36   A    
C10   C13   S    
C1    C37   S    
C11   C12   S    
C55   H26   S    
C28   H13   S    
C17   C18   A    
C9    C11   S    
C6    H1    S    
O13   V3    S    
O5    C3    A    
C19   C20   A    
C18   H9    S    
C43   O21   S    
C19   H10   S    
V2    O10   S    
C5    H2    S    
C62   H30   S    
C54   C57   S    
C23   C48   S    
C35   C37   A    
O8    V2    S    
C49   C50   S    
O18   V4    S    
C49   C53   S    
C42   C43   A    
C8    C47   S    
O1    V2    S    
O7    V1    S    
C33   H17   S    
C50   C54   S    
C61   C62   S    
C21   C23   A    
C49   C56   S    
C33   C34   A    
C53   C55   S    
O9    C4    A    
C44   H21   S    
C17   C22   A    
C43   C44   A    
C6    C10   S    
H7    C29   S    
C56   C58   S    
O21   C61   S    
O16   V4    S    
C63   H33   S    
O15   C47   A    
C52   C60   T    
C5    C9    S    
C2    C52   S    
C36   C40   A    
C12   C16   S    
C41   C42   A    
C5    C12   S    
C38   C41   A    
C13   H4    S    
C9    C10   S    
C20   C21   A    
O12   C45   A    
O17   V3    S    
C45   C51   S    
C49   H23   S    
O11   V4    S    
C32   C33   A    
H3    C14   S    
C9    H6    S    
C34   C35   A    
C8    C16   T    
O2    C1    A    
C24   C25   A    
C18   C19   A    
C50   C58   S    
C11   H5    S    
O19   V4    S    
C28   C29   A    
C63   H32   S    
C27   H12   S    
C5    C6    S    
C54   C59   S    
C55   C57   S    
C6    C14   S    
C31   H15   S    
O3    C4    A    
C21   C22   A    
O6    V2    S    
O14   C46   A    
O9    V2    S    
O14   V3    S    
C53   H27   S    
C23   C24   A    
O2    V1    S    
C56   C60   S    
C17   H8    S    
C25   C26   A    
O4    C2    A    
C61   H28   S    
C63   H34   S    
C10   C15   S    
C57   H25   S    
C27   C28   A    
C13   C14   S    
C7    C15   T    
O1    C2    A    
C3    C26   S    
O5    V1    S    
O8    C3    A    
C42   H20   S    
C30   H14   S    
C51   C59   T    
C57   C58   S    
C11   C13   S    
H24   C58   S    
C62   C63   S    
C38   C39   A    
C4    C7    S    
O13   C48   A    
O7    V2    S    
O4    V1    S    
O3    V1    S    
V1    O10   S    
C32   H16   S    
C31   C32   A    
C20   H11   S    
C29   C30   A    
V3    O20   S    
C34   H18   S    
V4    O20   S    
C62   H31   S    
C35   C36   A    
C24   C27   A    
C40   C46   S    
C37   C38   A    
O11   C46   A    
C41   H19   S    
O18   C47   A    
C39   C40   A    
C55   C56   S    
C22   C26   A    
O17   V4    S    
C45   O16   A    
C39   C44   A    
C61   H29   S    
