data_mof_unit_pretest_1858.cif
_audit_creation_date              2012-12-10T17:35:19-0500
_audit_creation_method            fapswitch 2.2
_symmetry_space_group_name_H-M    P1
_symmetry_Int_Tables_number       1
_space_group_crystal_system       triclinic
_cell_length_a                    30.359264
_cell_length_b                    21.478865
_cell_length_c                    21.445262
_cell_angle_alpha                 89.900367
_cell_angle_beta                  134.993664
_cell_angle_gamma                 90.096452
_cell_volume                      9889.3147693

loop_
_atom_site_label
_atom_site_type_symbol
_atom_type_description
_atom_site_fract_x
_atom_site_fract_y
_atom_site_fract_z
_atom_type_partial_charge
C1    C     C_R   0.120242 0.499767 0.120282 0.834741
C2    C     C_R   0.620242 0.999767 0.120282 0.834744
C3    C     C_3   0.976992 0.731984 0.920750 0.311081
C4    C     C_3   0.974382 0.268778 0.920472 0.312206
C5    C     C_3   0.476990 0.231985 0.920750 0.311079
C6    C     C_3   0.474383 0.768778 0.920472 0.312198
C7    C     C_3   0.996155 0.688603 0.994626 -0.257937
C8    C     C_3   0.998120 0.311483 0.997359 -0.278406
C9    C     C_3   0.496156 0.188603 0.994628 -0.257957
C10   C     C_3   0.498120 0.811484 0.997358 -0.278408
C11   C     C_3   0.228906 0.453781 0.190892 -0.226542
C12   C     C_3   0.228872 0.555479 0.208048 -0.231026
C13   C     C_3   0.728906 0.953788 0.190883 -0.226524
C14   C     C_3   0.728872 0.055482 0.208059 -0.231068
C15   C     C_3   0.270631 0.509668 0.212121 -0.233952
C16   C     C_3   0.770632 0.009679 0.212123 -0.234068
C17   C     C_3   0.311460 0.499726 0.311586 -0.094229
C18   C     C_3   0.811460 0.999726 0.311586 -0.094142
C19   C     C_3   0.270074 0.445127 0.290346 0.357979
C20   C     C_3   0.270057 0.544399 0.307158 0.334801
C21   C     C_3   0.770074 0.945124 0.290336 0.358012
C22   C     C_3   0.770057 0.044392 0.307166 0.334813
C23   C     C_3   0.229568 0.489802 0.287239 0.310032
C24   C     C_3   0.729568 0.989791 0.287237 0.310022
C25   C     C_3   0.188434 0.499580 0.188505 -0.124661
C26   C     C_3   0.688434 0.999580 0.188505 -0.124673
C27   C     C_3   0.769502 0.547222 0.736571 0.408467
C28   C     C_3   0.768638 0.447044 0.745562 0.298137
C29   C     C_3   0.269501 0.047224 0.736573 0.408478
C30   C     C_3   0.268638 0.947045 0.745560 0.298189
C31   C     C_3   0.727470 0.494580 0.669739 -0.248661
C32   C     C_3   0.227470 0.994583 0.669739 -0.248673
C33   C     C_R   0.997861 0.620254 0.997572 0.892154
C34   C     C_R   0.999076 0.379749 0.998964 0.902187
C35   C     C_R   0.497861 0.120254 0.997573 0.892165
C36   C     C_R   0.499075 0.879749 0.998964 0.902193
C37   C     C_3   0.688052 0.500526 0.689705 -0.186143
C38   C     C_3   0.188052 0.000526 0.689705 -0.186141
C39   C     C_3   0.728728 0.554469 0.754540 -0.235403
C40   C     C_3   0.727957 0.451949 0.763978 -0.208964
C41   C     C_3   0.228728 0.054467 0.754543 -0.235433
C42   C     C_3   0.227958 0.951947 0.763976 -0.208896
C43   C     C_3   0.769823 0.505701 0.828953 0.312366
C44   C     C_3   0.269823 0.005698 0.828953 0.312324
C45   C     C_3   0.810995 0.499588 0.811614 -0.278382
C46   C     C_3   0.310995 0.999588 0.811614 -0.278397
C47   C     C_R   0.999870 0.999814 0.879919 0.965344
C48   C     C_R   0.499870 0.499814 0.879919 0.965345
C49   C     C_R   0.000026 0.879906 0.000660 0.883975
C50   C     C_R   0.000044 0.120127 0.000742 0.892497
C51   C     C_R   0.500026 0.379906 0.000661 0.884015
C52   C     C_R   0.500044 0.620127 0.000742 0.892483
C53   C     C_R   0.999851 0.999720 0.120274 0.792891
C54   C     C_R   0.499851 0.499720 0.120274 0.792918
C55   C     C_R   0.500359 0.500015 0.380166 0.827038
C56   C     C_R   0.000360 0.000015 0.380167 0.827046
C57   C     C_R   0.379741 0.499946 0.380061 0.854839
C58   C     C_R   0.879741 0.999946 0.380061 0.854836
C59   C     C_R   0.498780 0.499944 0.618906 0.945623
C60   C     C_R   0.998780 0.999944 0.618907 0.945616
C61   C     C_R   0.879592 0.499659 0.879671 0.887673
C62   C     C_R   0.379592 0.999660 0.879671 0.887679
C63   C     C_R   0.620096 0.500106 0.621083 0.872822
C64   C     C_R   0.120096 0.000106 0.621083 0.872820
C65   C     C_3   0.035046 0.045253 0.805333 0.259456
C66   C     C_3   0.019180 0.944999 0.789727 0.242330
C67   C     C_3   0.535044 0.545255 0.805330 0.259455
C68   C     C_3   0.519182 0.445000 0.789730 0.242332
C69   C     C_3   0.555509 0.490544 0.784590 0.205731
C70   C     C_3   0.055509 0.990541 0.784590 0.205728
C71   C     C_3   0.497192 0.499801 0.685300 -0.393994
C72   C     C_3   0.997192 0.999801 0.685300 -0.393990
C73   C     C_3   0.476587 0.554900 0.706378 0.264365
C74   C     C_3   0.460669 0.453624 0.690543 0.271481
C75   C     C_3   0.976590 0.054900 0.706381 0.264371
C76   C     C_3   0.960667 0.953625 0.690540 0.271484
C77   C     C_3   0.940753 0.008561 0.712011 0.234987
C78   C     C_3   0.440753 0.508558 0.712011 0.234988
C79   C     C_3   0.999056 0.999600 0.811258 -0.220055
C80   C     C_3   0.499056 0.499600 0.811258 -0.220055
C81   C     C_3   0.039541 0.955707 0.268882 -0.279445
C82   C     C_3   0.017336 0.056429 0.246349 -0.240918
C83   C     C_3   0.539574 0.455737 0.268915 -0.279373
C84   C     C_3   0.517293 0.556442 0.246306 -0.240998
C85   C     C_3   0.556044 0.512302 0.326040 0.479747
C86   C     C_3   0.056054 0.012259 0.326049 0.479764
C87   C     C_3   0.499872 0.499887 0.311399 -0.069118
C88   C     C_3   0.999872 0.999887 0.311400 -0.069132
C89   C     C_3   0.054553 0.728593 0.063851 0.288134
C90   C     C_3   0.056534 0.270793 0.062353 0.262955
C91   C     C_3   0.554555 0.228593 0.063850 0.288110
C92   C     C_3   0.556534 0.770793 0.062353 0.262969
C93   C     C_3   0.482002 0.443161 0.253460 -0.257202
C94   C     C_3   0.459715 0.543572 0.230928 -0.243287
C95   C     C_3   0.981959 0.943174 0.253418 -0.257063
C96   C     C_3   0.959749 0.043601 0.230961 -0.243406
C97   C     C_3   0.942592 0.987117 0.173112 0.484217
C98   C     C_3   0.442601 0.487075 0.173121 0.484242
C99   C     C_3   0.999335 0.999580 0.188210 -0.151932
C100  C     C_3   0.499335 0.499581 0.188211 -0.151935
C101  C     C_3   0.035626 0.771076 0.990887 0.330157
C102  C     C_3   0.033130 0.228863 0.986398 0.339348
C103  C     C_3   0.535624 0.271076 0.990885 0.330142
C104  C     C_3   0.533130 0.728862 0.986399 0.339353
C105  C     C_3   0.999802 0.811984 0.000778 -0.192964
C106  C     C_3   0.999952 0.188125 0.001243 -0.211793
C107  C     C_3   0.499802 0.311984 0.000780 -0.192962
C108  C     C_3   0.499952 0.688125 0.001244 -0.211792
C109  C     C_3   0.019558 0.770132 0.075764 -0.330885
C110  C     C_3   0.024328 0.229406 0.079312 -0.288847
C111  C     C_3   0.519562 0.270131 0.075768 -0.330848
C112  C     C_3   0.524328 0.729406 0.079312 -0.288861
C113  C     C_3   0.960483 0.730521 0.004986 0.331066
C114  C     C_3   0.965125 0.269873 0.012809 0.403717
C115  C     C_3   0.460487 0.230519 0.004992 0.331118
C116  C     C_3   0.465124 0.769873 0.012808 0.403712
C117  C     C_3   0.940168 0.773428 0.930294 -0.224843
C118  C     C_3   0.940164 0.227544 0.935015 -0.240387
C119  C     C_3   0.440168 0.273427 0.930299 -0.224823
C120  C     C_3   0.440164 0.727544 0.935015 -0.240390
Cu1   Cu    Cu3+1 0.000000 0.500000 0.062770 1.217789
Cu2   Cu    Cu3+1 0.500000 1.000000 0.062770 1.217791
Cu3   Cu    Cu3+1 0.000000 0.500000 0.937230 1.166909
Cu4   Cu    Cu3+1 0.500000 1.000000 0.937230 1.166856
Cu5   Cu    Cu3+1 0.937240 1.000000 0.937300 1.161689
Cu6   Cu    Cu3+1 0.437240 0.500000 0.937300 1.161689
Cu7   Cu    Cu3+1 0.062760 1.000000 0.062860 1.078350
Cu8   Cu    Cu3+1 0.562760 0.500000 0.062860 1.078359
Cu9   Cu    Cu3+1 0.499990 0.562760 0.500060 1.122006
Cu10  Cu    Cu3+1 0.499990 0.437240 0.500060 1.107678
Cu11  Cu    Cu3+1 0.999990 0.062760 0.500060 1.121968
Cu12  Cu    Cu3+1 0.999990 0.937240 0.500060 1.107746
H1    H     H_    0.709254 0.490160 0.603257 0.216493
H2    H     H_    0.209254 0.990166 0.603257 0.216511
H3    H     H_    0.711816 0.599019 0.757560 0.203821
H4    H     H_    0.710362 0.412522 0.774921 0.219165
H5    H     H_    0.211816 0.099017 0.757564 0.203812
H6    H     H_    0.210362 0.912518 0.774917 0.219176
H7    H     H_    0.072902 0.920438 0.284595 0.179911
H8    H     H_    0.032740 0.102420 0.243761 0.176188
H9    H     H_    0.572962 0.420493 0.284655 0.179927
H10   H     H_    0.532663 0.602445 0.243684 0.176203
H11   H     H_    0.466744 0.397067 0.256061 0.202033
H12   H     H_    0.426514 0.578895 0.215585 0.191368
H13   H     H_    0.966668 0.897091 0.255986 0.202100
H14   H     H_    0.926574 0.078949 0.215646 0.191342
H15   H     H_    0.037327 0.786190 0.139400 0.176943
H16   H     H_    0.044958 0.212746 0.144426 0.190773
H17   H     H_    0.537332 0.286189 0.139406 0.176944
H18   H     H_    0.544957 0.712746 0.144426 0.190772
H19   H     H_    0.892473 0.792175 0.875662 0.241616
H20   H     H_    0.891800 0.209570 0.883034 0.243347
H21   H     H_    0.392472 0.292173 0.875669 0.241614
H22   H     H_    0.391801 0.709570 0.883033 0.243346
H23   H     H_    0.288676 0.517833 0.182347 0.206982
H24   H     H_    0.788676 0.017853 0.182352 0.206802
H25   H     H_    0.211153 0.416013 0.142630 0.197014
H26   H     H_    0.211056 0.601200 0.173895 0.199400
H27   H     H_    0.711154 0.916026 0.142615 0.197057
H28   H     H_    0.711056 0.101207 0.173914 0.199389
O1    O     O_R   0.091580 0.500000 0.144580 -0.541328
O2    O     O_R   0.591580 1.000000 0.144580 -0.541322
O3    O     O_R   0.053010 0.908430 0.053110 -0.568558
O4    O     O_R   0.053010 0.091570 0.053110 -0.570399
O5    O     O_R   0.553010 0.408430 0.053110 -0.568567
O6    O     O_R   0.553010 0.591570 0.053110 -0.570392
O7    O     O_R   0.946970 1.000000 0.038620 -0.525159
O8    O     O_R   0.446970 0.500000 0.038620 -0.525164
O9    O     O_R   0.052980 1.000000 0.144650 -0.609143
O10   O     O_R   0.552980 0.500000 0.144650 -0.609148
O11   O     O_R   0.499990 0.552970 0.408480 -0.579705
O12   O     O_R   0.499990 0.447030 0.408480 -0.595535
O13   O     O_R   0.999990 0.052970 0.408480 -0.579738
O14   O     O_R   0.999990 0.947030 0.408480 -0.595507
O15   O     O_R   0.408420 0.552990 0.408490 -0.555748
O16   O     O_R   0.408420 0.447010 0.408490 -0.538598
O17   O     O_R   0.908420 0.052990 0.408490 -0.555764
O18   O     O_R   0.908420 0.947010 0.408490 -0.538578
O19   O     O_R   0.500000 0.553030 0.591640 -0.541990
O20   O     O_R   0.500000 0.446970 0.591640 -0.541485
O21   O     O_R   0.000000 0.053030 0.591640 -0.541993
O22   O     O_R   0.000000 0.946970 0.591640 -0.541484
O23   O     O_R   0.591570 0.553010 0.591640 -0.568989
O24   O     O_R   0.591570 0.446990 0.591640 -0.595283
O25   O     O_R   0.091570 0.053010 0.591640 -0.569005
O26   O     O_R   0.091570 0.946990 0.591640 -0.595252
O27   O     O_R   0.091570 0.500000 0.038570 -0.598398
O28   O     O_R   0.591570 1.000000 0.038570 -0.598439
O29   O     O_R   0.999990 0.591570 0.052990 -0.542456
O30   O     O_R   0.999990 0.408430 0.052990 -0.540571
O31   O     O_R   0.499990 0.091570 0.052990 -0.542449
O32   O     O_R   0.499990 0.908430 0.052990 -0.540568
O33   O     O_R   0.999990 0.591570 0.946990 -0.553959
O34   O     O_R   0.999990 0.408430 0.946990 -0.557733
O35   O     O_R   0.499990 0.091570 0.946990 -0.553968
O36   O     O_R   0.499990 0.908430 0.946990 -0.557730
O37   O     O_R   0.908430 0.500000 0.961430 -0.529047
O38   O     O_R   0.408430 1.000000 0.961430 -0.529040
O39   O     O_R   0.908420 0.500000 0.855420 -0.531072
O40   O     O_R   0.408420 1.000000 0.855420 -0.531072
O41   O     O_R   0.947020 1.000000 0.855520 -0.540099
O42   O     O_R   0.447020 0.500000 0.855520 -0.540100
O43   O     O_R   0.053020 1.000000 0.961550 -0.551661
O44   O     O_R   0.553020 0.500000 0.961550 -0.551660
O45   O     O_R   0.947010 0.908420 0.947070 -0.575654
O46   O     O_R   0.947010 0.091580 0.947070 -0.575064
O47   O     O_R   0.447010 0.408420 0.947070 -0.575626
O48   O     O_R   0.447010 0.591580 0.947070 -0.575083
O49   O     O_3   0.076455 0.793978 0.986369 -0.629268
H29   H     H_    0.095938 0.756678 0.986984 0.356825
O50   O     O_3   0.070075 0.205362 0.975149 -0.614067
H30   H     H_    0.092390 0.241856 0.980047 0.365757
O51   O     O_3   0.576451 0.293980 0.986363 -0.629271
H31   H     H_    0.595933 0.256681 0.986976 0.356816
O52   O     O_3   0.570076 0.705361 0.975151 -0.614049
H32   H     H_    0.592391 0.741856 0.980048 0.365780
O53   O     O_3   0.207683 0.479363 0.325865 -0.661835
H33   H     H_    0.245397 0.477452 0.390187 0.371039
O54   O     O_3   0.707682 0.979341 0.325860 -0.661836
H34   H     H_    0.745395 0.977428 0.390182 0.371045
S1    S     S_3+6 0.795254 0.610037 0.714909 0.074325
O55   O     O_2   0.844138 0.646166 0.798269 -0.251000
O56   O     O_2   0.822093 0.584815 0.682251 -0.229200
O57   O     O_3   0.734383 0.656490 0.637750 -0.488891
H35   H     H_    0.751345 0.689114 0.626796 0.387727
S2    S     S_3+6 0.790673 0.375595 0.732300 0.101788
O58   O     O_2   0.801642 0.385764 0.674826 -0.204867
O59   O     O_2   0.849237 0.352077 0.820736 -0.232142
O60   O     O_3   0.733729 0.322748 0.685093 -0.454648
H36   H     H_    0.695828 0.342890 0.630202 0.344494
S3    S     S_3+6 0.295253 0.110042 0.714914 0.074320
O61   O     O_2   0.344138 0.146168 0.798276 -0.250997
O62   O     O_2   0.322091 0.084823 0.682253 -0.229204
O63   O     O_3   0.234382 0.156496 0.637760 -0.488911
H37   H     H_    0.251343 0.189120 0.626803 0.387725
S4    S     S_3+6 0.290674 0.875600 0.732291 0.101777
O64   O     O_2   0.301658 0.885779 0.674836 -0.204903
O65   O     O_2   0.349229 0.852070 0.820727 -0.232129
O66   O     O_3   0.233720 0.822759 0.685055 -0.454659
H38   H     H_    0.195836 0.842885 0.630120 0.344525
S5    S     S_3+6 0.793451 0.513057 0.932164 0.111281
O67   O     O_2   0.817511 0.451504 0.979204 -0.174825
O68   O     O_2   0.843758 0.561196 0.988865 -0.182375
O69   O     O_3   0.732259 0.534425 0.914634 -0.465983
H39   H     H_    0.720360 0.576134 0.886982 0.358060
S6    S     S_3+6 0.293452 0.013051 0.932165 0.111276
O70   O     O_2   0.317516 0.951500 0.979206 -0.174816
O71   O     O_2   0.343755 0.061194 0.988864 -0.182372
O72   O     O_3   0.232260 0.034414 0.914637 -0.465985
H40   H     H_    0.220346 0.076114 0.886961 0.358035
O73   O     O_3   0.615429 0.480419 0.821490 -0.655990
H41   H     H_    0.641297 0.471299 0.884568 0.391612
O74   O     O_3   0.115428 0.980413 0.821489 -0.656001
H42   H     H_    0.141296 0.971291 0.884566 0.391613
O75   O     O_3   0.074166 0.092365 0.866579 -0.605807
H43   H     H_    0.093468 0.110938 0.848230 0.373719
O76   O     O_3   0.041871 0.888279 0.834983 -0.609043
H44   H     H_    0.052776 0.863773 0.808347 0.382649
O77   O     O_3   0.574162 0.592369 0.866575 -0.605791
H45   H     H_    0.593462 0.610943 0.848224 0.373733
O78   O     O_3   0.541876 0.388281 0.834988 -0.609045
H46   H     H_    0.552781 0.363775 0.808352 0.382642
S7    S     S_3+6 0.445310 0.627911 0.651033 0.083834
O79   O     O_2   0.496838 0.669632 0.680094 -0.247949
O80   O     O_2   0.399235 0.617558 0.553259 -0.242199
O81   O     O_3   0.409017 0.660943 0.675585 -0.431061
H47   H     H_    0.383361 0.694579 0.631472 0.391242
S8    S     S_3+6 0.409920 0.392968 0.614801 0.087136
O82   O     O_2   0.362053 0.419531 0.523246 -0.288033
O83   O     O_2   0.446878 0.343556 0.618888 -0.225040
O84   O     O_3   0.374405 0.361965 0.641873 -0.445126
H48   H     H_    0.345444 0.330450 0.595701 0.378781
S9    S     S_3+6 0.945317 0.127914 0.651040 0.083828
O85   O     O_2   0.996847 0.169633 0.680105 -0.247967
O86   O     O_2   0.899243 0.117564 0.553265 -0.242193
O87   O     O_3   0.909023 0.160946 0.675590 -0.431065
H49   H     H_    0.883366 0.194580 0.631476 0.391240
S10   S     S_3+6 0.909916 0.892972 0.614796 0.087136
O88   O     O_2   0.862053 0.919536 0.523241 -0.288048
O89   O     O_2   0.946873 0.843556 0.618886 -0.225032
O90   O     O_3   0.874395 0.861973 0.641861 -0.445132
H50   H     H_    0.845440 0.830452 0.595694 0.378784
O91   O     O_3   0.880557 0.017913 0.674851 -0.598104
H51   H     H_    0.853626 0.022089 0.610584 0.370524
O92   O     O_3   0.380557 0.517908 0.674851 -0.598106
H52   H     H_    0.353625 0.522083 0.610583 0.370522
O93   O     O_3   0.615505 0.525522 0.408567 -0.708394
H53   H     H_    0.642101 0.531105 0.397817 0.342345
O94   O     O_3   0.115525 0.025435 0.408585 -0.708442
H54   H     H_    0.142125 0.030998 0.397839 0.342346
O95   O     O_3   0.114312 0.704290 0.132492 -0.715426
H55   H     H_    0.141698 0.740943 0.165986 0.354189
O96   O     O_3   0.117077 0.294355 0.127544 -0.710386
H56   H     H_    0.144327 0.257363 0.159075 0.353206
O97   O     O_3   0.614314 0.204291 0.132489 -0.715435
H57   H     H_    0.641700 0.240944 0.165982 0.354188
O98   O     O_3   0.617077 0.794355 0.127544 -0.710366
H58   H     H_    0.644327 0.757363 0.159077 0.353214
S11   S     S_3+6 0.864719 0.969820 0.072185 0.040441
O99   O     O_2   0.837568 0.024845 0.011258 -0.243097
O100  O     O_2   0.864569 0.913983 0.029931 -0.247200
O101  O     O_3   0.822204 0.954559 0.093695 -0.544909
H59   H     H_    0.779629 0.946161 0.035384 0.390702
S12   S     S_3+6 0.364744 0.469715 0.072205 0.040403
O102  O     O_2   0.337536 0.524712 0.011223 -0.242410
O103  O     O_2   0.364657 0.413879 0.030010 -0.247936
O104  O     O_3   0.322238 0.454412 0.093720 -0.544938
H60   H     H_    0.279853 0.445165 0.035524 0.390826
S13   S     S_3+6 0.909447 0.707984 0.015501 0.099379
O105  O     O_2   0.853424 0.675639 0.932953 -0.193181
O106  O     O_2   0.942563 0.664964 0.092891 -0.222239
O107  O     O_3   0.885952 0.771752 0.030703 -0.439888
H61   H     H_    0.924624 0.790312 0.086414 0.347029
S14   S     S_3+6 0.921039 0.293619 0.035036 0.081127
O108  O     O_2   0.964219 0.321492 0.125784 -0.243328
O109  O     O_2   0.872975 0.340905 0.968472 -0.210174
O110  O     O_3   0.885613 0.230853 0.030298 -0.503429
H62   H     H_    0.863497 0.246624 0.045459 0.390484
S15   S     S_3+6 0.409456 0.207976 0.015516 0.099339
O111  O     O_2   0.353425 0.175644 0.932961 -0.193186
O112  O     O_2   0.442571 0.164943 0.092893 -0.222272
O113  O     O_3   0.385973 0.271740 0.030747 -0.439985
H63   H     H_    0.424648 0.290277 0.086478 0.347062
S16   S     S_3+6 0.421037 0.793620 0.035033 0.081128
O114  O     O_2   0.464218 0.821486 0.125786 -0.243323
O115  O     O_2   0.372980 0.840912 0.968475 -0.210176
O116  O     O_3   0.385603 0.730856 0.030281 -0.503440
H64   H     H_    0.363485 0.746627 0.045439 0.390498
S17   S     S_3+6 0.947579 0.717329 0.814307 0.110848
O117  O     O_2   0.985645 0.752806 0.805488 -0.204489
O118  O     O_2   0.949977 0.649259 0.801211 -0.212945
O119  O     O_3   0.873435 0.742093 0.736015 -0.476851
H65   H     H_    0.858642 0.728738 0.679576 0.380889
S18   S     S_3+6 0.941629 0.286165 0.812625 0.113792
O120  O     O_2   0.880521 0.252625 0.745229 -0.193590
O121  O     O_2   0.930871 0.354740 0.793916 -0.211617
O122  O     O_3   0.990333 0.261787 0.805110 -0.461555
H66   H     H_    0.972860 0.278722 0.748359 0.390697
S19   S     S_3+6 0.447574 0.217330 0.814305 0.110838
O123  O     O_2   0.485639 0.252807 0.805484 -0.204497
O124  O     O_2   0.449972 0.149260 0.801209 -0.212958
O125  O     O_3   0.373430 0.242095 0.736016 -0.476849
H67   H     H_    0.358635 0.228740 0.679576 0.380887
S20   S     S_3+6 0.441629 0.786164 0.812625 0.113792
O126  O     O_2   0.380518 0.752629 0.745228 -0.193587
O127  O     O_2   0.430878 0.854739 0.793919 -0.211628
O128  O     O_3   0.490330 0.761778 0.805107 -0.461526
H68   H     H_    0.472864 0.778721 0.748363 0.390696
O129  O     O_3   0.292264 0.387928 0.334376 -0.632195
H69   H     H_    0.254587 0.362807 0.305752 0.356770
O130  O     O_3   0.292294 0.591140 0.368790 -0.642126
H70   H     H_    0.254654 0.611975 0.347805 0.355438
O131  O     O_3   0.792264 0.887921 0.334356 -0.632183
H71   H     H_    0.754587 0.862797 0.305727 0.356775
O132  O     O_3   0.792294 0.091125 0.368808 -0.642139
H72   H     H_    0.754654 0.111957 0.347826 0.355437

loop_
_geom_bond_atom_site_label_1
_geom_bond_atom_site_label_2
_ccdc_geom_bond_type
C1    C25   S    
C18   C21   S    
C108  C120  S    
O95   H55   S    
C66   O76   S    
C4    C118  S    
O122  H66   S    
Cu11  O17   S    
Cu2   O31   S    
C53   C99   S    
C66   C79   S    
C5    C119  S    
C81   C95   S    
C86   C88   S    
C28   C40   S    
O84   H48   S    
C83   C93   S    
C87   C94   S    
S9    O87   S    
O69   H39   S    
C81   H7    S    
C82   H8    S    
C11   C15   S    
C18   C58   S    
S12   O104  S    
S16   O114  D    
C4    C102  S    
C6    C104  S    
C98   S12   S    
C78   O92   S    
C81   C86   S    
C8    C114  S    
C34   O34   A    
C1    O27   A    
Cu9   O23   S    
C88   C95   S    
C119  H21   S    
C106  C118  S    
C60   O22   A    
C7    C33   S    
C42   C44   S    
C111  H17   S    
C37   C63   S    
C44   C46   S    
C38   C64   S    
C77   C79   S    
C63   O23   A    
C85   C87   S    
C50   O4    A    
C84   C100  S    
S7    O79   D    
C61   O37   A    
C71   C73   S    
O125  H67   S    
C81   C99   S    
S14   O108  D    
Cu6   O42   S    
C31   C37   S    
C56   O14   A    
C19   C23   S    
O52   H32   S    
Cu8   O44   S    
O60   H36   S    
O132  H72   S    
C84   H10   S    
Cu6   O47   S    
C66   C76   S    
C12   C20   S    
C13   C21   S    
C2    C26   S    
C14   C26   S    
C46   C62   S    
C83   C100  S    
C28   S2    S    
C55   O12   A    
C11   H25   S    
Cu4   O28   S    
S7    O80   D    
C89   C101  S    
C91   C103  S    
C95   C97   S    
C29   C32   S    
C56   O13   A    
Cu6   O8    S    
C92   O98   S    
C94   H12   S    
S18   O122  S    
C66   C70   S    
S16   O116  S    
C65   O75   S    
Cu5   O45   S    
S3    O63   S    
Cu1   Cu3   S    
C92   C104  S    
C44   S6    S    
C51   C107  S    
C21   C24   S    
Cu5   Cu7   S    
C60   C72   S    
Cu9   O15   S    
C103  C107  S    
C67   C69   S    
C64   O26   A    
Cu12  O18   S    
C23   O53   S    
Cu7   O4    S    
C65   C79   S    
O130  H70   S    
C61   O39   A    
O72   H40   S    
O96   H56   S    
Cu3   O39   S    
C59   O20   A    
C24   C26   S    
C37   C40   S    
Cu1   O29   S    
O74   H42   S    
C78   C80   S    
C102  O50   S    
C56   C88   S    
C11   C25   S    
C68   C74   S    
C65   C70   S    
C48   O42   A    
S4    O64   D    
S5    O67   D    
C45   C61   S    
C90   C102  S    
C22   O132  S    
C57   O15   A    
Cu3   O34   S    
C110  C114  S    
C15   H23   S    
C3    C101  S    
S12   O103  D    
C75   S9    S    
S17   O118  D    
C109  H15   S    
C72   C75   S    
C110  H16   S    
O94   H54   S    
S13   O106  D    
C27   S1    S    
C34   O30   A    
O119  H65   S    
C38   C41   S    
C117  H19   S    
Cu6   O48   S    
C83   H9    S    
C69   O73   S    
S18   O120  D    
C8    C34   S    
C101  O49   S    
O53   H33   S    
C116  C120  S    
C36   O36   A    
C5    C9    S    
S1    O55   D    
C43   C45   S    
C20   C23   S    
Cu4   O36   S    
O76   H44   S    
C120  H22   S    
O49   H29   S    
C58   O18   A    
C113  S13   S    
Cu12  O14   S    
Cu2   O38   S    
C118  H20   S    
C75   C77   S    
Cu10  O20   S    
C113  C117  S    
Cu11  O25   S    
C115  C119  S    
Cu8   O5    S    
C5    S19   S    
C112  H18   S    
C13   C26   S    
C51   O5    A    
Cu2   Cu4   S    
C50   O46   A    
C112  C116  S    
C10   C116  S    
C9    C35   S    
Cu9   Cu10  S    
C60   O21   A    
O54   H34   S    
C105  C109  S    
S6    O70   D    
C35   O31   A    
C29   C41   S    
C18   C22   S    
C107  C111  S    
C30   C46   S    
Cu3   O33   S    
C54   O8    A    
Cu2   O32   S    
C53   O9    A    
Cu7   O9    S    
C96   H14   S    
C48   O44   A    
Cu2   O2    S    
S4    O66   S    
S5    O69   S    
C14   C22   S    
O97   H57   S    
C32   H2    S    
C87   C93   S    
S9    O86   D    
S10   O89   D    
C55   C87   S    
S11   O101  S    
C49   O3    A    
C33   O33   A    
S19   O125  S    
S20   O126  D    
S16   O115  D    
S2    O58   D    
C13   C16   S    
O91   H51   S    
S10   O88   D    
C30   S4    S    
C13   H27   S    
C67   O77   S    
O75   H43   S    
S6    O72   S    
C88   C96   S    
C42   H6    S    
C82   C99   S    
C54   O10   A    
O66   H38   S    
C114  S14   S    
C115  S15   S    
O57   H35   S    
C5    C103  S    
O131  H71   S    
O73   H41   S    
C39   H3    S    
O51   H31   S    
C4    S18   S    
C40   H4    S    
Cu5   O41   S    
O129  H69   S    
Cu5   O7    S    
C20   O130  S    
S1    O57   S    
C3    C7    S    
C94   C98   S    
S14   O109  D    
C17   C20   S    
S17   O117  D    
C55   O11   A    
C11   C19   S    
C3    C117  S    
Cu12  O22   S    
C89   O95   S    
Cu10  O12   S    
C68   C69   S    
S10   O90   S    
C16   H24   S    
Cu6   Cu8   S    
C67   C73   S    
C41   H5    S    
C35   O35   A    
C27   C45   S    
S14   O110  S    
O113  H63   S    
C1    O1    A    
C86   O94   S    
C36   O32   A    
C105  C117  S    
C107  C119  S    
C90   O96   S    
O104  H60   S    
C9    C115  S    
C84   C85   S    
C29   S3    S    
O128  H68   S    
C92   C112  S    
C49   C105  S    
C82   C86   S    
C27   C31   S    
C108  C112  S    
S11   O99   D    
O92   H52   S    
S19   O123  D    
S20   O128  S    
O107  H61   S    
C47   O43   A    
S3    O62   D    
C84   C94   S    
C77   O91   S    
C83   C85   S    
C49   O45   A    
C98   C100  S    
C41   C44   S    
C22   C24   S    
O63   H37   S    
Cu11  Cu12  S    
C104  C108  S    
C15   C17   S    
Cu7   O3    S    
C63   O24   A    
C28   C31   S    
C67   C80   S    
C104  O52   S    
C19   O129  S    
C6    C10   S    
C71   C74   S    
Cu4   O40   S    
C29   C46   S    
C59   O19   A    
C62   O40   A    
O116  H64   S    
C37   C39   S    
Cu10  O24   S    
Cu11  O21   S    
C48   C80   S    
O78   H46   S    
C91   O97   S    
S4    O65   D    
C51   O47   A    
C2    O28   A    
S15   O111  D    
C24   O54   S    
S8    O82   D    
C74   C78   S    
C31   H1    S    
C50   C106  S    
C30   C42   S    
C10   C36   S    
Cu7   O43   S    
C17   C57   S    
C68   C80   S    
S7    O81   S    
Cu8   O10   S    
C21   O131  S    
O98   H58   S    
C97   S11   S    
C47   C79   S    
C4    C8    S    
C9    C91   S    
S13   O105  D    
C43   S5    S    
Cu9   O19   S    
C38   C42   S    
S18   O121  D    
C7    C89   S    
C89   C109  S    
Cu5   O46   S    
C47   O41   A    
C91   C111  S    
C69   C71   S    
C52   O6    A    
C74   S8    S    
C53   O7    A    
O50   H30   S    
C27   C39   S    
C73   C78   S    
C12   C15   S    
C32   C38   S    
C103  O51   S    
C64   O25   A    
C93   H11   S    
C109  C113  S    
S15   O113  S    
Cu1   O1    S    
Cu8   O6    S    
C54   C100  S    
C70   O74   S    
C6    C120  S    
C68   O78   S    
C97   C99   S    
C10   C92   S    
C101  C105  S    
C3    S17   S    
S6    O71   D    
C28   C45   S    
C82   C96   S    
C76   C77   S    
C62   O38   A    
Cu12  O26   S    
Cu1   O30   S    
C39   C43   S    
Cu10  O16   S    
O90   H50   S    
Cu11  O13   S    
C14   H28   S    
S5    O68   D    
C57   O16   A    
S8    O84   S    
C96   C97   S    
C40   C43   S    
S9    O85   D    
C72   C76   S    
O87   H49   S    
C33   O29   A    
S11   O100  D    
Cu1   O37   S    
C114  C118  S    
S12   O102  D    
S19   O124  D    
S20   O127  D    
S2    O59   D    
O93   H53   S    
S17   O119  S    
C14   C16   S    
C8    C90   S    
C90   C110  S    
O77   H45   S    
C116  S16   S    
C6    S20   S    
C95   H13   S    
C106  C110  S    
S13   O107  S    
O101  H59   S    
C85   O93   S    
C52   O48   A    
Cu9   O11   S    
S8    O83   D    
C70   C72   S    
S2    O60   S    
C65   C75   S    
C76   S10   S    
C12   C25   S    
C12   H26   S    
C7    C113  S    
S1    O56   D    
C30   C32   S    
Cu4   O35   S    
C17   C19   S    
C102  C106  S    
C58   O17   A    
C23   C25   S    
Cu3   O27   S    
O110  H62   S    
O81   H47   S    
C73   S7    S    
C52   C108  S    
C16   C18   S    
S3    O61   D    
C111  C115  S    
S15   O112  D    
C93   C98   S    
C59   C71   S    
C2    O2    A    
