data_mof_unit_pretest_1740.cif
_audit_creation_date              2012-12-10T18:02:44-0500
_audit_creation_method            fapswitch 2.2
_symmetry_space_group_name_H-M    P1
_symmetry_Int_Tables_number       1
_space_group_crystal_system       triclinic
_cell_length_a                    25.988002
_cell_length_b                    36.038817
_cell_length_c                    25.983763
_cell_angle_alpha                 89.998355
_cell_angle_beta                  89.999829
_cell_angle_gamma                 90.001046
_cell_volume                      24335.7908426

loop_
_atom_site_label
_atom_site_type_symbol
_atom_type_description
_atom_site_fract_x
_atom_site_fract_y
_atom_site_fract_z
_atom_type_partial_charge
C1    C     C_R   0.499995 0.349517 0.750044 0.821885
C2    C     C_R   0.000004 0.349518 0.749942 0.817674
C3    C     C_R   0.533411 0.773581 0.973301 -0.187368
C4    C     C_R   0.533412 0.726420 0.473303 -0.188724
C5    C     C_R   0.533412 0.726421 0.526699 -0.187397
C6    C     C_R   0.533412 0.273580 0.526697 -0.188892
C7    C     C_R   0.533412 0.273580 0.473301 -0.187630
C8    C     C_R   0.033414 0.226421 0.473303 -0.188151
C9    C     C_R   0.033414 0.226422 0.526699 -0.187837
C10   C     C_R   0.033413 0.773580 0.526697 -0.189250
C11   C     C_R   0.033413 0.773580 0.473301 -0.188350
C12   C     C_R   0.033410 0.726419 0.973302 -0.188239
C13   C     C_R   0.999990 0.650483 0.749959 0.821155
C14   C     C_R   0.033410 0.726419 0.026699 -0.187051
C15   C     C_R   0.033411 0.273582 0.026697 -0.188539
C16   C     C_R   0.033411 0.273581 0.973301 -0.187057
C17   C     C_R   0.500006 0.249967 0.053687 0.005140
C18   C     C_R   0.500006 0.249966 0.946313 0.005306
C19   C     C_R   0.500006 0.750033 0.946313 0.005287
C20   C     C_R   0.500006 0.750034 0.053687 0.005322
C21   C     C_R   0.500006 0.749967 0.553687 0.005257
C22   C     C_R   0.500006 0.749966 0.446313 0.005519
C23   C     C_R   0.500006 0.250033 0.446313 0.005391
C24   C     C_R   0.000001 0.650485 0.250058 0.817928
C25   C     C_R   0.500006 0.250034 0.553687 0.005545
C26   C     C_R   0.000006 0.249967 0.553687 0.005285
C27   C     C_R   0.000006 0.249966 0.446313 0.005441
C28   C     C_R   0.000006 0.750033 0.446313 0.005739
C29   C     C_R   0.000006 0.750034 0.553687 0.005683
C30   C     C_R   0.000006 0.749967 0.053687 0.005017
C31   C     C_R   0.000006 0.749966 0.946313 0.005221
C32   C     C_R   0.000006 0.250033 0.946313 0.005117
C33   C     C_R   0.000006 0.250034 0.053687 0.005382
C34   C     C_R   0.466601 0.273512 0.026696 -0.189137
C35   C     C_R   0.999997 0.849518 0.750048 0.821766
C36   C     C_R   0.466601 0.273511 0.973302 -0.188363
C37   C     C_R   0.466600 0.726488 0.973304 -0.189079
C38   C     C_R   0.466600 0.726488 0.026698 -0.188300
C39   C     C_R   0.466599 0.773510 0.526696 -0.189031
C40   C     C_R   0.466600 0.773510 0.473302 -0.188695
C41   C     C_R   0.466599 0.226488 0.473304 -0.189569
C42   C     C_R   0.466600 0.226489 0.526698 -0.188961
C43   C     C_R   0.966598 0.273510 0.526696 -0.189417
C44   C     C_R   0.966598 0.273510 0.473302 -0.188603
C45   C     C_R   0.966599 0.726489 0.473304 -0.189395
C46   C     C_R   0.999995 0.849523 0.249951 0.817825
C47   C     C_R   0.966599 0.726489 0.526698 -0.188779
C48   C     C_R   0.966601 0.773512 0.026696 -0.188603
C49   C     C_R   0.966601 0.773511 0.973302 -0.188350
C50   C     C_R   0.966600 0.226488 0.973304 -0.189355
C51   C     C_R   0.966601 0.226488 0.026698 -0.188766
C52   C     C_R   0.500003 0.250028 0.609787 0.788802
C53   C     C_R   0.500003 0.250028 0.390213 0.788309
C54   C     C_R   0.500003 0.749971 0.390213 0.789076
C55   C     C_R   0.500003 0.749972 0.609787 0.789204
C56   C     C_R   0.500003 0.750029 0.109787 0.789296
C57   C     C_R   0.999999 0.150479 0.249948 0.817655
C58   C     C_R   0.500003 0.750028 0.890213 0.787905
C59   C     C_R   0.500003 0.249971 0.890213 0.789207
C60   C     C_R   0.500003 0.249972 0.109787 0.788563
C61   C     C_R   0.000003 0.250029 0.109787 0.789105
C62   C     C_R   0.000003 0.250028 0.890213 0.788601
C63   C     C_R   0.000003 0.749971 0.890213 0.789188
C64   C     C_R   0.000003 0.749972 0.109787 0.789593
C65   C     C_R   0.000003 0.750028 0.609787 0.788811
C66   C     C_R   0.000003 0.750028 0.390213 0.787588
C67   C     C_R   0.000003 0.249972 0.390213 0.788737
C68   C     C_R   0.999997 0.150481 0.750049 0.817714
C69   C     C_R   0.000003 0.249972 0.609787 0.788269
C70   C     C_R   0.640254 0.250000 0.750000 0.794187
C71   C     C_R   0.640254 0.250000 0.250000 0.790633
C72   C     C_R   0.640254 0.750000 0.250000 0.794517
C73   C     C_R   0.640254 0.750000 0.750000 0.791763
C74   C     C_R   0.140254 0.250000 0.250000 0.794003
C75   C     C_R   0.140254 0.250000 0.750000 0.790263
C76   C     C_R   0.140254 0.750000 0.750000 0.794209
C77   C     C_R   0.140254 0.750000 0.250000 0.792159
C78   C     C_R   0.359780 0.250000 0.750000 0.788870
C79   C     C_3   0.519021 0.021623 0.803947 0.288697
C80   C     C_R   0.359780 0.250000 0.250000 0.790397
C81   C     C_R   0.359780 0.750000 0.250000 0.789046
C82   C     C_R   0.359780 0.750000 0.750000 0.789854
C83   C     C_R   0.859780 0.250000 0.250000 0.789038
C84   C     C_R   0.859780 0.250000 0.750000 0.790312
C85   C     C_R   0.859780 0.750000 0.750000 0.789022
C86   C     C_R   0.859780 0.750000 0.250000 0.789821
C87   C     C_R   0.276705 0.226418 0.716638 -0.186444
C88   C     C_R   0.276705 0.226421 0.283369 -0.185834
C89   C     C_R   0.276706 0.773579 0.283366 -0.186239
C90   C     C_3   0.519098 0.021752 0.196339 0.365722
C91   C     C_R   0.276706 0.773581 0.716634 -0.186032
C92   C     C_R   0.276705 0.726420 0.216635 -0.185970
C93   C     C_R   0.276705 0.726420 0.783366 -0.185702
C94   C     C_R   0.276706 0.273582 0.783362 -0.186391
C95   C     C_R   0.276706 0.273579 0.216632 -0.185579
C96   C     C_R   0.776705 0.226418 0.216638 -0.186343
C97   C     C_R   0.776705 0.226419 0.783366 -0.185887
C98   C     C_R   0.776706 0.773579 0.783366 -0.186143
C99   C     C_R   0.776706 0.773581 0.216635 -0.185855
C100  C     C_R   0.776705 0.726419 0.716636 -0.186161
C101  C     C_3   0.520976 0.978374 0.196853 0.285783
C102  C     C_R   0.776705 0.726418 0.283365 -0.185624
C103  C     C_R   0.776706 0.273582 0.283362 -0.186219
C104  C     C_R   0.776706 0.273581 0.716635 -0.185701
C105  C     C_R   0.223321 0.226417 0.716639 -0.183749
C106  C     C_R   0.223320 0.226421 0.283368 -0.181892
C107  C     C_R   0.223322 0.773579 0.283365 -0.182167
C108  C     C_R   0.223322 0.773581 0.716635 -0.182824
C109  C     C_R   0.223321 0.726420 0.216636 -0.183237
C110  C     C_R   0.223320 0.726419 0.783365 -0.182573
C111  C     C_R   0.223322 0.273583 0.783361 -0.183929
C112  C     C_R   0.499995 0.349521 0.249954 0.818062
C113  C     C_3   0.517959 0.978229 0.804116 0.358754
C114  C     C_R   0.223322 0.273580 0.216633 -0.182498
C115  C     C_R   0.723321 0.226417 0.216639 -0.183577
C116  C     C_R   0.723320 0.226419 0.783365 -0.182821
C117  C     C_R   0.723322 0.773580 0.783365 -0.182058
C118  C     C_R   0.723322 0.773582 0.216636 -0.182541
C119  C     C_R   0.723321 0.726419 0.716637 -0.183468
C120  C     C_R   0.723320 0.726418 0.283364 -0.182600
C121  C     C_R   0.723322 0.273583 0.283361 -0.183516
C122  C     C_R   0.723322 0.273581 0.716635 -0.182694
C123  C     C_R   0.196339 0.250000 0.750000 0.002581
C124  C     C_3   0.522971 0.521636 0.302330 0.285396
C125  C     C_R   0.196339 0.250001 0.250000 0.002376
C126  C     C_R   0.196339 0.750000 0.250001 0.002426
C127  C     C_R   0.196339 0.750000 0.750000 0.002465
C128  C     C_R   0.696339 0.250000 0.250000 0.002562
C129  C     C_R   0.696339 0.250000 0.750000 0.002481
C130  C     C_R   0.696339 0.749999 0.750001 0.002285
C131  C     C_R   0.696339 0.750000 0.250000 0.002540
C132  C     C_R   0.303690 0.250000 0.750000 0.003571
C133  C     C_R   0.303690 0.250000 0.250000 0.003105
C134  C     C_R   0.303690 0.750000 0.250000 0.003452
C135  C     C_3   0.519673 0.521766 0.696566 0.365789
C136  C     C_R   0.303690 0.750000 0.750000 0.003341
C137  C     C_R   0.803690 0.250000 0.250000 0.003546
C138  C     C_R   0.803690 0.250000 0.750000 0.003202
C139  C     C_R   0.803690 0.750000 0.750000 0.003326
C140  C     C_R   0.803690 0.750000 0.250000 0.003361
C141  C     C_3   0.447076 0.021524 0.739030 -0.613233
C142  C     C_3   0.447302 0.021489 0.261127 -0.618412
C143  C     C_3   0.446984 0.978514 0.259456 -0.618768
C144  C     C_3   0.447170 0.978525 0.738205 -0.642574
C145  C     C_3   0.446723 0.521488 0.242487 -0.618035
C146  C     C_3   0.521465 0.478386 0.697040 0.286150
C147  C     C_3   0.447156 0.521488 0.760549 -0.618205
C148  C     C_3   0.446876 0.478509 0.758931 -0.618299
C149  C     C_3   0.446987 0.478516 0.240718 -0.617533
C150  C     C_3   0.946422 0.021507 0.241656 -0.637315
C151  C     C_3   0.947257 0.021487 0.760869 -0.618471
C152  C     C_3   0.946947 0.978514 0.759151 -0.618590
C153  C     C_3   0.946416 0.978500 0.241647 -0.637223
C154  C     C_3   0.947876 0.521477 0.736021 -0.618227
C155  C     C_3   0.946939 0.521503 0.259582 -0.617525
C156  C     C_3   0.946671 0.478519 0.258111 -0.619397
C157  C     C_3   0.520969 0.478263 0.302984 0.365986
C158  C     C_3   0.948287 0.478494 0.734598 -0.618055
C159  C     C_3   0.021602 0.021717 0.302615 0.298426
C160  C     C_3   0.019357 0.021744 0.696427 0.366340
C161  C     C_3   0.021312 0.978371 0.696986 0.285794
C162  C     C_3   0.021573 0.978287 0.302629 0.298492
C163  C     C_3   0.016162 0.521604 0.804784 0.286530
C164  C     C_R   0.500000 0.650482 0.249949 0.822069
C165  C     C_3   0.020657 0.521802 0.196961 0.364106
C166  C     C_3   0.022089 0.478413 0.197291 0.288031
C167  C     C_3   0.014596 0.478222 0.805005 0.364948
C168  C     C_1   0.000285 0.389174 0.749788 -0.136368
C169  C     C_1   0.000223 0.389181 0.250113 -0.136988
C170  C     C_1   0.000300 0.610823 0.250256 -0.136271
C171  C     C_1   0.000220 0.610821 0.749872 -0.137102
C172  C     C_1   0.000236 0.889184 0.249820 -0.131879
C173  C     C_1   0.000295 0.889178 0.750208 -0.137695
C174  C     C_1   0.000290 0.110819 0.750201 -0.136997
C175  C     C_R   0.499997 0.650477 0.750052 0.817677
C176  C     C_1   0.000248 0.110813 0.249809 -0.131925
C177  C     C_1   0.500295 0.389180 0.249801 -0.136354
C178  C     C_1   0.500275 0.389180 0.750180 -0.137292
C179  C     C_1   0.500289 0.610821 0.750222 -0.136390
C180  C     C_1   0.500309 0.610822 0.249774 -0.137149
C181  C     C_1   0.500239 0.889186 0.749836 -0.129905
C182  C     C_1   0.500286 0.889177 0.250196 -0.137478
C183  C     C_1   0.500292 0.110817 0.250205 -0.136782
C184  C     C_1   0.500232 0.110821 0.749858 -0.139540
C185  C     C_3   0.501871 0.036628 0.750232 0.138726
C186  C     C_R   0.499998 0.849520 0.250048 0.821711
C187  C     C_3   0.502082 0.036629 0.250020 0.119492
C188  C     C_3   0.502066 0.963372 0.249978 0.119940
C189  C     C_3   0.501764 0.963376 0.750157 0.147958
C190  C     C_3   0.502117 0.536630 0.249929 0.119124
C191  C     C_3   0.502058 0.536628 0.750062 0.119267
C192  C     C_3   0.502050 0.463367 0.749976 0.119410
C193  C     C_3   0.502115 0.463373 0.249929 0.118565
C194  C     C_3   0.001728 0.036618 0.249919 0.166837
C195  C     C_3   0.002087 0.036629 0.750024 0.119743
C196  C     C_3   0.002084 0.963372 0.750001 0.120072
C197  C     C_R   0.500001 0.849522 0.749947 0.817123
C198  C     C_3   0.001715 0.963383 0.249930 0.166806
C199  C     C_3   0.001925 0.536628 0.750240 0.119493
C200  C     C_3   0.002038 0.536637 0.250129 0.118597
C201  C     C_3   0.001956 0.463370 0.249930 0.120624
C202  C     C_3   0.001992 0.463370 0.750106 0.119146
C203  C     C_3   0.042163 0.478403 0.710569 0.287206
C204  C     C_3   0.036194 0.478190 0.294681 0.364533
C205  C     C_3   0.037577 0.521579 0.293869 0.287036
C206  C     C_3   0.040893 0.521793 0.709562 0.364513
C207  C     C_3   0.036137 0.978280 0.205353 0.297750
C208  C     C_R   0.499997 0.150477 0.749952 0.821444
C209  C     C_3   0.037107 0.978256 0.794093 0.365049
C210  C     C_3   0.038740 0.021635 0.792881 0.285907
C211  C     C_3   0.036129 0.021713 0.205334 0.297898
C212  C     C_3   0.537481 0.478362 0.205996 0.285518
C213  C     C_3   0.536919 0.478231 0.794202 0.364524
C214  C     C_3   0.538416 0.521617 0.793154 0.286414
C215  C     C_3   0.535760 0.521738 0.204780 0.365073
C216  C     C_3   0.539150 0.978291 0.708043 0.295450
C217  C     C_3   0.537351 0.978246 0.293865 0.365188
C218  C     C_3   0.538935 0.021626 0.292701 0.286243
C219  C     C_R   0.499997 0.150481 0.250049 0.817741
C220  C     C_3   0.538584 0.021722 0.707540 0.305827
C221  C     C_1   0.000860 0.422544 0.749818 -0.020424
C222  C     C_1   0.000790 0.422557 0.250061 -0.018638
C223  C     C_1   0.000886 0.577452 0.250298 -0.020736
C224  C     C_1   0.000772 0.577450 0.749957 -0.020838
C225  C     C_1   0.000730 0.922561 0.249811 0.032404
C226  C     C_1   0.000903 0.922553 0.750199 -0.021726
C227  C     C_1   0.000897 0.077448 0.750195 -0.021321
C228  C     C_1   0.000748 0.077441 0.249796 0.032363
C229  C     C_1   0.500913 0.422553 0.249795 -0.020994
C230  C     C_R   0.999986 0.349522 0.250033 0.821700
C231  C     C_1   0.500869 0.422550 0.750159 -0.021294
C232  C     C_1   0.500884 0.577450 0.750236 -0.020470
C233  C     C_1   0.500926 0.577450 0.249762 -0.021281
C234  C     C_1   0.500750 0.922559 0.749891 0.030766
C235  C     C_1   0.500885 0.922550 0.250178 -0.021425
C236  C     C_1   0.500899 0.077447 0.250200 -0.021177
C237  C     C_1   0.500773 0.077447 0.749942 -0.019732
C238  C     C_R   0.533411 0.226419 0.973303 -0.188501
C239  C     C_R   0.533411 0.226419 0.026699 -0.187245
C240  C     C_R   0.533412 0.773581 0.026697 -0.188529
H1    H     H_    0.296765 0.207977 0.690545 0.164139
H2    H     H_    0.796765 0.207980 0.809462 0.164064
H3    H     H_    0.434217 0.968603 0.699756 0.221219
H4    H     H_    0.429858 0.532474 0.206169 0.222632
H5    H     H_    0.433470 0.531081 0.798903 0.219705
H6    H     H_    0.431061 0.467579 0.795753 0.222397
H7    H     H_    0.432461 0.468983 0.202644 0.219599
H8    H     H_    0.930674 0.031794 0.204455 0.221375
H9    H     H_    0.933859 0.031038 0.799346 0.219303
H10   H     H_    0.931227 0.967544 0.795987 0.222327
H11   H     H_    0.930685 0.968224 0.204435 0.221381
H12   H     H_    0.935730 0.532336 0.697795 0.221720
H13   H     H_    0.796767 0.792018 0.809461 0.164390
H14   H     H_    0.932491 0.531164 0.297622 0.219813
H15   H     H_    0.930385 0.467653 0.294763 0.222204
H16   H     H_    0.938148 0.468828 0.695192 0.219259
H17   H     H_    0.559537 0.208008 0.953235 0.163742
H18   H     H_    0.559537 0.208009 0.046768 0.164697
H19   H     H_    0.559538 0.791993 0.046764 0.163700
H20   H     H_    0.559538 0.791992 0.953231 0.164774
H21   H     H_    0.559540 0.708010 0.453235 0.163489
H22   H     H_    0.559539 0.708011 0.546768 0.164534
H23   H     H_    0.559540 0.291992 0.546764 0.163534
H24   H     H_    0.796768 0.792021 0.190540 0.164018
H25   H     H_    0.559539 0.291991 0.453231 0.164498
H26   H     H_    0.059542 0.208012 0.453235 0.164302
H27   H     H_    0.059542 0.208012 0.546768 0.164532
H28   H     H_    0.059541 0.791991 0.546764 0.163251
H29   H     H_    0.059541 0.791990 0.453231 0.164050
H30   H     H_    0.059536 0.708007 0.953235 0.163920
H31   H     H_    0.059536 0.708008 0.046768 0.164698
H32   H     H_    0.059537 0.291993 0.046764 0.163720
H33   H     H_    0.059537 0.291993 0.953231 0.164923
H34   H     H_    0.563996 0.059888 0.831921 0.329504
H35   H     H_    0.796765 0.707980 0.690540 0.164260
H36   H     H_    0.570242 0.033716 0.144394 0.336842
H37   H     H_    0.567782 0.940373 0.171321 0.330344
H38   H     H_    0.568704 0.966344 0.856498 0.336211
H39   H     H_    0.570851 0.559619 0.325851 0.330527
H40   H     H_    0.571429 0.533760 0.645231 0.336631
H41   H     H_    0.568422 0.440355 0.671874 0.330243
H42   H     H_    0.573801 0.466298 0.353205 0.336715
H43   H     H_    0.075701 0.034770 0.351047 0.318703
H44   H     H_    0.070701 0.033715 0.644686 0.335717
H45   H     H_    0.068364 0.940348 0.671959 0.330004
H46   H     H_    0.796765 0.707978 0.309460 0.164048
H47   H     H_    0.075622 0.965223 0.351109 0.318636
H48   H     H_    0.060126 0.559684 0.834765 0.329812
H49   H     H_    0.073564 0.533739 0.146787 0.337164
H50   H     H_    0.068964 0.440663 0.171124 0.329066
H51   H     H_    0.061551 0.466288 0.860792 0.336809
H52   H     H_    0.605746 0.034895 0.680097 0.317231
H53   H     H_    0.591791 0.059651 0.299447 0.325978
H54   H     H_    0.603824 0.966282 0.323785 0.334546
H55   H     H_    0.607217 0.965367 0.682648 0.317796
H56   H     H_    0.601039 0.533705 0.172350 0.335139
H57   H     H_    0.796767 0.292023 0.309454 0.164228
H58   H     H_    0.591186 0.559598 0.800930 0.325948
H59   H     H_    0.603151 0.466280 0.824664 0.335197
H60   H     H_    0.590136 0.440350 0.197716 0.326440
H61   H     H_    0.102010 0.034747 0.174802 0.316964
H62   H     H_    0.091606 0.059639 0.799780 0.326066
H63   H     H_    0.103380 0.966295 0.824441 0.334660
H64   H     H_    0.102025 0.965211 0.174864 0.316985
H65   H     H_    0.109791 0.533755 0.685732 0.335121
H66   H     H_    0.090017 0.559670 0.302795 0.325786
H67   H     H_    0.101991 0.466157 0.326008 0.334950
H68   H     H_    0.796768 0.292021 0.690539 0.164083
H69   H     H_    0.095329 0.440366 0.707395 0.325871
H70   H     H_    0.440474 0.291924 0.046760 0.162673
H71   H     H_    0.440474 0.291923 0.953236 0.162818
H72   H     H_    0.440472 0.708075 0.953240 0.162723
H73   H     H_    0.296765 0.207983 0.309467 0.164107
H74   H     H_    0.440473 0.708076 0.046764 0.162850
H75   H     H_    0.440471 0.791922 0.546760 0.162516
H76   H     H_    0.440471 0.791921 0.453236 0.162591
H77   H     H_    0.440471 0.208077 0.453240 0.162478
H78   H     H_    0.440471 0.208077 0.546764 0.162582
H79   H     H_    0.940469 0.291920 0.546760 0.162612
H80   H     H_    0.940469 0.291920 0.453236 0.162760
H81   H     H_    0.940470 0.708077 0.453240 0.162588
H82   H     H_    0.940470 0.708078 0.546764 0.162718
H83   H     H_    0.940473 0.791924 0.046760 0.162694
H84   H     H_    0.296767 0.792018 0.309462 0.164099
H85   H     H_    0.940474 0.791923 0.953236 0.162792
H86   H     H_    0.940473 0.208075 0.953240 0.162564
H87   H     H_    0.940473 0.208076 0.046764 0.162609
H88   H     H_    0.203255 0.207977 0.690548 0.166250
H89   H     H_    0.203254 0.207984 0.309464 0.166427
H90   H     H_    0.203257 0.792017 0.309460 0.166427
H91   H     H_    0.203257 0.792020 0.690540 0.165420
H92   H     H_    0.203255 0.707982 0.190542 0.166426
H93   H     H_    0.203254 0.707981 0.809460 0.165981
H94   H     H_    0.203257 0.292023 0.809452 0.166477
H95   H     H_    0.296768 0.792020 0.690538 0.163873
H96   H     H_    0.203257 0.292017 0.190536 0.165702
H97   H     H_    0.703255 0.207977 0.190548 0.166374
H98   H     H_    0.703254 0.207981 0.809459 0.165717
H99   H     H_    0.703257 0.792018 0.809459 0.166935
H100  H     H_    0.703257 0.792021 0.190542 0.165639
H101  H     H_    0.703255 0.707981 0.690543 0.166369
H102  H     H_    0.703254 0.707979 0.309457 0.165488
H103  H     H_    0.703257 0.292023 0.309452 0.166313
H104  H     H_    0.703257 0.292020 0.690541 0.165581
H105  H     H_    0.918272 0.467622 0.761189 0.221860
H106  H     H_    0.296765 0.707981 0.190539 0.164317
H107  H     H_    0.921081 0.468870 0.226466 0.218923
H108  H     H_    0.920058 0.532380 0.229828 0.221355
H109  H     H_    0.918959 0.531133 0.764649 0.219359
H110  H     H_    0.920471 0.968217 0.272611 0.219945
H111  H     H_    0.920864 0.968963 0.727854 0.217846
H112  H     H_    0.919577 0.032455 0.731924 0.220828
H113  H     H_    0.920495 0.031785 0.272637 0.219889
H114  H     H_    0.420170 0.467533 0.270457 0.221434
H115  H     H_    0.420884 0.468915 0.727585 0.218290
H116  H     H_    0.419689 0.532414 0.731372 0.221105
H117  H     H_    0.296765 0.707980 0.809463 0.164232
H118  H     H_    0.421628 0.531021 0.274592 0.218307
H119  H     H_    0.419062 0.967930 0.767003 0.220654
H120  H     H_    0.420706 0.968945 0.228334 0.218257
H121  H     H_    0.419494 0.032440 0.232289 0.221139
H122  H     H_    0.419702 0.031474 0.768954 0.218420
H123  H     H_    0.490919 0.031345 0.833582 0.009173
H124  H     H_    0.489617 0.030721 0.167602 0.008206
H125  H     H_    0.494268 0.968272 0.166194 0.010397
H126  H     H_    0.488373 0.968868 0.832502 0.000835
H127  H     H_    0.497487 0.531811 0.333968 0.010677
H128  H     H_    0.296767 0.292023 0.809455 0.164324
H129  H     H_    0.490553 0.530783 0.667493 0.007863
H130  H     H_    0.495009 0.468331 0.666133 0.010294
H131  H     H_    0.492437 0.469368 0.332708 0.008519
H132  H     H_    0.994442 0.031464 0.333105 0.008304
H133  H     H_    0.989976 0.030671 0.667560 0.007093
H134  H     H_    0.994831 0.968228 0.666157 0.009348
H135  H     H_    0.994378 0.968568 0.333105 0.008309
H136  H     H_    0.986727 0.531533 0.832958 0.010466
H137  H     H_    0.992235 0.531002 0.167311 0.008745
H138  H     H_    0.995841 0.468556 0.166072 0.009109
H139  H     H_    0.296768 0.292017 0.190534 0.164145
H140  H     H_    0.983014 0.469079 0.831297 0.008341
H141  H     H_    0.523182 0.031136 0.669558 0.015763
H142  H     H_    0.525142 0.031737 0.330949 0.009623
H143  H     H_    0.520260 0.969279 0.331320 0.007946
H144  H     H_    0.525000 0.968236 0.669890 0.008863
H145  H     H_    0.517244 0.530631 0.167971 0.009236
H146  H     H_    0.524119 0.531660 0.831252 0.010400
H147  H     H_    0.519530 0.469198 0.831489 0.008964
H148  H     H_    0.522451 0.468182 0.168256 0.011029
H149  H     H_    0.019043 0.031439 0.168234 0.009140
H150  H     H_    0.796765 0.207977 0.190545 0.164168
H151  H     H_    0.024801 0.031779 0.831060 0.009939
H152  H     H_    0.019768 0.969324 0.831451 0.008443
H153  H     H_    0.019076 0.968535 0.168252 0.009178
H154  H     H_    0.027247 0.530931 0.670795 0.007884
H155  H     H_    0.022473 0.531506 0.331714 0.010506
H156  H     H_    0.018333 0.469045 0.331697 0.007898
H157  H     H_    0.031346 0.468461 0.671287 0.009626
H158  H     H_    0.433061 0.032149 0.701320 0.221686
H159  H     H_    0.434070 0.031060 0.299652 0.219083
H160  H     H_    0.431499 0.967563 0.296403 0.221956
O1    O     O_3   0.500010 0.250000 0.750000 -0.477747
O2    O     O_R   0.469640 0.332020 0.219590 -0.641479
O3    O     O_R   0.030350 0.667980 0.219700 -0.626506
O4    O     O_R   0.030350 0.832020 0.719700 -0.633849
O5    O     O_R   0.030350 0.832020 0.280300 -0.624802
O6    O     O_R   0.030350 0.167980 0.280300 -0.624923
O7    O     O_R   0.030350 0.167980 0.719700 -0.626338
O8    O     O_3   0.568390 0.034759 0.816914 -0.644135
O9    O     O_3   0.566895 0.037022 0.182183 -0.642737
O10   O     O_3   0.571069 0.965709 0.185946 -0.641462
O11   O     O_3   0.565911 0.963381 0.818608 -0.630397
O12   O     O_3   0.573487 0.534217 0.311308 -0.641161
O13   O     O_R   0.469640 0.667980 0.219590 -0.638490
O14   O     O_3   0.567667 0.536996 0.682995 -0.642317
O15   O     O_3   0.571630 0.465676 0.686562 -0.641753
O16   O     O_3   0.569161 0.462922 0.315565 -0.643225
O17   O     O_3   0.070925 0.035962 0.313172 -0.639225
O18   O     O_3   0.067183 0.037059 0.682454 -0.643485
O19   O     O_3   0.071498 0.965752 0.686406 -0.642198
O20   O     O_3   0.070868 0.964014 0.313232 -0.639390
O21   O     O_3   0.064972 0.534469 0.820166 -0.642114
O22   O     O_3   0.069052 0.536853 0.184488 -0.641522
O23   O     O_3   0.072259 0.465498 0.187344 -0.641895
O24   O     O_R   0.469640 0.667980 0.780410 -0.641526
O25   O     O_3   0.061256 0.463117 0.822831 -0.641473
O26   O     O_3   0.588374 0.036368 0.714067 -0.653951
O27   O     O_3   0.589584 0.034282 0.284728 -0.643180
O28   O     O_3   0.587026 0.962968 0.289769 -0.646371
O29   O     O_3   0.589122 0.964430 0.716274 -0.639945
O30   O     O_3   0.585518 0.537082 0.206953 -0.646564
O31   O     O_3   0.589129 0.534344 0.785825 -0.643008
O32   O     O_3   0.586660 0.463018 0.790491 -0.645787
O33   O     O_3   0.588399 0.465780 0.212297 -0.642386
O34   O     O_3   0.086372 0.035979 0.209623 -0.642316
O35   O     O_R   0.469640 0.832020 0.280410 -0.638829
O36   O     O_3   0.089436 0.034254 0.785101 -0.643012
O37   O     O_3   0.086789 0.962949 0.790331 -0.646693
O38   O     O_3   0.086385 0.964028 0.209688 -0.642203
O39   O     O_3   0.090079 0.536917 0.718177 -0.644716
O40   O     O_3   0.088386 0.534406 0.287652 -0.643673
O41   O     O_3   0.086027 0.463061 0.291555 -0.644312
O42   O     O_3   0.091962 0.465574 0.722419 -0.643421
O43   O     O_R   0.469640 0.832020 0.719590 -0.642800
O44   O     O_R   0.469640 0.167980 0.719590 -0.639098
O45   O     O_R   0.469640 0.167980 0.280410 -0.641716
O46   O     O_R   0.969640 0.332020 0.280410 -0.638803
O47   O     O_R   0.969640 0.332020 0.719590 -0.641475
O48   O     O_R   0.969640 0.667980 0.719590 -0.639142
O49   O     O_3   0.500010 0.250000 0.250000 -0.478547
O50   O     O_R   0.969640 0.667980 0.280410 -0.641595
O51   O     O_R   0.969640 0.832020 0.780410 -0.638619
O52   O     O_R   0.969640 0.832020 0.219590 -0.642395
O53   O     O_R   0.969640 0.167980 0.219590 -0.642456
O54   O     O_R   0.969640 0.167980 0.780410 -0.641678
O55   O     O_R   0.530360 0.271520 0.634240 -0.648763
O56   O     O_R   0.530360 0.271520 0.365760 -0.647326
O57   O     O_R   0.530360 0.728480 0.365760 -0.648778
O58   O     O_R   0.530360 0.728480 0.634240 -0.647256
O59   O     O_R   0.530360 0.771520 0.134240 -0.648683
O60   O     O_3   0.500010 0.750000 0.250000 -0.477778
O61   O     O_R   0.530360 0.771520 0.865760 -0.647623
O62   O     O_R   0.530360 0.228480 0.865760 -0.648610
O63   O     O_R   0.530360 0.228480 0.134240 -0.647171
O64   O     O_R   0.030360 0.271520 0.134240 -0.648685
O65   O     O_R   0.030360 0.271520 0.865760 -0.646935
O66   O     O_R   0.030360 0.728480 0.865760 -0.648521
O67   O     O_R   0.030360 0.728480 0.134240 -0.647216
O68   O     O_R   0.030360 0.771520 0.634240 -0.648875
O69   O     O_R   0.030360 0.771520 0.365760 -0.648110
O70   O     O_R   0.030360 0.228480 0.365760 -0.648031
O71   O     O_3   0.500010 0.750000 0.750000 -0.478924
O72   O     O_R   0.030360 0.228480 0.634240 -0.647318
O73   O     O_R   0.615810 0.271520 0.719700 -0.645994
O74   O     O_R   0.615810 0.271520 0.280300 -0.646400
O75   O     O_R   0.615810 0.728480 0.280300 -0.646015
O76   O     O_R   0.615810 0.728480 0.719700 -0.646546
O77   O     O_R   0.615810 0.771520 0.219700 -0.645926
O78   O     O_R   0.615810 0.771520 0.780300 -0.645370
O79   O     O_R   0.615810 0.228480 0.780300 -0.645930
O80   O     O_R   0.615810 0.228480 0.219700 -0.646408
O81   O     O_R   0.115810 0.271520 0.219700 -0.646164
O82   O     O_3   0.000010 0.250000 0.250000 -0.478428
O83   O     O_R   0.115810 0.271520 0.780300 -0.646511
O84   O     O_R   0.115810 0.728480 0.780300 -0.645768
O85   O     O_R   0.115810 0.728480 0.219700 -0.646444
O86   O     O_R   0.115810 0.771520 0.719700 -0.646079
O87   O     O_R   0.115810 0.771520 0.280300 -0.645489
O88   O     O_R   0.115810 0.228480 0.280300 -0.645336
O89   O     O_R   0.115810 0.228480 0.719700 -0.646447
O90   O     O_R   0.384200 0.271530 0.780390 -0.648203
O91   O     O_R   0.384200 0.271530 0.219610 -0.647629
O92   O     O_R   0.384200 0.728470 0.219610 -0.648185
O93   O     O_3   0.000010 0.250000 0.750000 -0.478546
O94   O     O_R   0.384200 0.728470 0.780390 -0.647665
O95   O     O_R   0.384200 0.771530 0.280390 -0.648242
O96   O     O_R   0.384200 0.771530 0.719610 -0.648055
O97   O     O_R   0.384200 0.228470 0.719610 -0.648204
O98   O     O_R   0.384200 0.228470 0.280390 -0.647671
O99   O     O_R   0.884200 0.271530 0.280390 -0.648191
O100  O     O_R   0.884200 0.271530 0.719610 -0.647600
O101  O     O_R   0.884200 0.728470 0.719610 -0.648168
O102  O     O_R   0.884200 0.728470 0.280390 -0.647701
O103  O     O_R   0.884200 0.771530 0.780390 -0.648174
O104  O     O_3   0.000010 0.750000 0.750000 -0.477832
O105  O     O_R   0.884200 0.771530 0.219610 -0.648078
O106  O     O_R   0.884200 0.228470 0.219610 -0.648152
O107  O     O_R   0.884200 0.228470 0.780390 -0.647676
O108  O     O_R   0.469640 0.228530 0.634220 -0.647946
O109  O     O_R   0.469640 0.228530 0.365780 -0.648625
O110  O     O_R   0.469640 0.771470 0.365780 -0.647876
O111  O     O_R   0.469640 0.771470 0.634220 -0.648182
O112  O     O_R   0.469640 0.728530 0.134220 -0.647733
O113  O     O_R   0.469640 0.728530 0.865780 -0.648594
O114  O     O_R   0.469640 0.271470 0.865780 -0.647766
O115  O     O_3   0.000010 0.750000 0.250000 -0.478816
O116  O     O_R   0.469640 0.271470 0.134220 -0.648539
O117  O     O_R   0.969640 0.228530 0.134220 -0.647857
O118  O     O_R   0.969640 0.228530 0.865780 -0.648597
O119  O     O_R   0.969640 0.771470 0.865780 -0.647800
O120  O     O_R   0.969640 0.771470 0.134220 -0.648012
O121  O     O_R   0.969640 0.728530 0.634220 -0.647851
O122  O     O_R   0.969640 0.728530 0.365780 -0.648616
O123  O     O_R   0.969640 0.271470 0.365780 -0.648052
O124  O     O_R   0.969640 0.271470 0.634220 -0.648615
O125  O     O_R   0.530350 0.332020 0.719700 -0.633610
O126  O     O_R   0.469640 0.332020 0.780410 -0.638677
O127  O     O_R   0.530350 0.332020 0.280300 -0.626323
O128  O     O_R   0.530350 0.667980 0.280300 -0.634005
O129  O     O_R   0.530350 0.667980 0.719700 -0.626416
O130  O     O_R   0.530350 0.832020 0.219700 -0.633518
O131  O     O_R   0.530350 0.832020 0.780300 -0.623665
O132  O     O_R   0.530350 0.167980 0.780300 -0.632991
O133  O     O_R   0.530350 0.167980 0.219700 -0.626208
O134  O     O_R   0.030350 0.332020 0.219700 -0.633372
O135  O     O_R   0.030350 0.332020 0.780300 -0.626002
O136  O     O_R   0.030350 0.667980 0.780300 -0.632439
Zn1   Zn    Zn3+2 0.456630 0.219310 0.706640 0.969678
Zn2   Zn    Zn3+2 0.956630 0.219310 0.793360 0.968516
Zn3   Zn    Zn3+2 0.956630 0.780690 0.793360 0.970389
Zn4   Zn    Zn3+2 0.956630 0.780690 0.206640 0.969666
Zn5   Zn    Zn3+2 0.956630 0.719310 0.706640 0.969933
Zn6   Zn    Zn3+2 0.956630 0.719310 0.293360 0.968103
Zn7   Zn    Zn3+2 0.956630 0.280690 0.293360 0.970182
Zn8   Zn    Zn3+2 0.956630 0.280690 0.706640 0.968605
Zn9   Zn    Zn3+2 0.543380 0.280740 0.706670 0.975979
Zn10  Zn    Zn3+2 0.543380 0.280740 0.293330 0.978311
Zn11  Zn    Zn3+2 0.543380 0.719260 0.293330 0.975983
Zn12  Zn    Zn3+2 0.456630 0.219310 0.293360 0.968390
Zn13  Zn    Zn3+2 0.543380 0.719260 0.706670 0.979062
Zn14  Zn    Zn3+2 0.543380 0.780740 0.206670 0.976375
Zn15  Zn    Zn3+2 0.543380 0.780740 0.793330 0.981421
Zn16  Zn    Zn3+2 0.543380 0.219260 0.793330 0.976382
Zn17  Zn    Zn3+2 0.543380 0.219260 0.206670 0.978468
Zn18  Zn    Zn3+2 0.043380 0.280740 0.206670 0.976184
Zn19  Zn    Zn3+2 0.043380 0.280740 0.793330 0.978689
Zn20  Zn    Zn3+2 0.043380 0.719260 0.793330 0.977011
Zn21  Zn    Zn3+2 0.043380 0.719260 0.206670 0.979450
Zn22  Zn    Zn3+2 0.043380 0.780740 0.706670 0.975612
Zn23  Zn    Zn3+2 0.456630 0.780690 0.293360 0.970119
Zn24  Zn    Zn3+2 0.043380 0.780740 0.293330 0.980269
Zn25  Zn    Zn3+2 0.043380 0.219260 0.293330 0.981526
Zn26  Zn    Zn3+2 0.043380 0.219260 0.706670 0.977942
Zn27  Zn    Zn3+2 0.456630 0.780690 0.706640 0.969202
Zn28  Zn    Zn3+2 0.456630 0.719310 0.206640 0.970652
Zn29  Zn    Zn3+2 0.456630 0.719310 0.793360 0.968290
Zn30  Zn    Zn3+2 0.456630 0.280690 0.793360 0.970416
Zn31  Zn    Zn3+2 0.456630 0.280690 0.206640 0.968851
Zn32  Zn    Zn3+2 0.956630 0.219310 0.206640 0.969073

loop_
_geom_bond_atom_site_label_1
_geom_bond_atom_site_label_2
_ccdc_geom_bond_type
C218  O27   S    
C159  C194  S    
O117  Zn32  S    
O85   Zn21  S    
C111  H94   S    
O89   Zn26  S    
C93   C136  A    
C146  C192  S    
C135  H129  S    
O3    Zn21  S    
C81   C134  S    
C188  C217  S    
C153  H11   S    
C148  H115  S    
C157  C193  S    
C201  C222  S    
O115  Zn4   S    
C185  C220  S    
C88   C133  A    
C154  C158  S    
C110  H93   S    
C56   O112  A    
O104  Zn5   S    
O132  Zn16  S    
C92   C109  A    
C87   H1    S    
C6    C25   A    
C144  C189  S    
C115  H97   S    
O115  Zn24  S    
C95   C133  A    
C119  C130  A    
O119  Zn3   S    
C105  C123  A    
C143  C188  S    
C94   H128  S    
H55   O29   S    
C150  C194  S    
C118  C131  A    
C19   C37   A    
H47   O20   S    
O4    Zn22  S    
C216  O29   S    
O94   Zn29  S    
C112  O2    A    
C199  C206  S    
H37   O10   S    
C3    C19   A    
C101  C188  S    
C93   C110  A    
C60   O116  A    
C90   H124  S    
O57   Zn11  S    
C89   H84   S    
C72   O77   A    
C121  H103  S    
O87   Zn24  S    
C9    C26   A    
C119  H101  S    
C196  C226  S    
C45   C47   A    
C19   C58   S    
C155  C156  S    
C202  C203  S    
C100  H35   S    
C46   O5    A    
C121  C128  A    
O114  Zn30  S    
C141  C144  S    
C21   C55   S    
C14   H31   S    
C70   C129  S    
C94   C132  A    
C80   C133  S    
C205  H155  S    
C161  C196  S    
C79   O8    S    
O107  Zn2   S    
O82   Zn18  S    
C28   C66   S    
C43   C44   A    
O125  Zn9   S    
C37   C38   A    
C189  C216  S    
C172  C225  T    
O122  Zn6   S    
O88   Zn25  S    
O5    Zn24  S    
C65   O121  A    
C154  H109  S    
C157  H131  S    
C56   O59   A    
C151  H112  S    
C175  O24   A    
C163  H136  S    
C13   O48   A    
O1    Zn9   S    
C230  O134  A    
O96   Zn27  S    
O95   Zn23  S    
C17   C239  A    
C230  O46   A    
C108  H91   S    
O120  Zn4   S    
C71   C128  S    
C1    O125  A    
C17   C34   A    
C103  C121  A    
C83   O99   A    
C117  H99   S    
O92   Zn28  S    
C68   O54   A    
C73   C130  S    
C65   O68   A    
C183  C219  S    
C38   H74   S    
C167  H140  S    
C12   H30   S    
C4    C5    A    
O52   Zn4   S    
O1    Zn16  S    
O49   Zn10  S    
O72   Zn26  S    
C6    C7    A    
C162  C198  S    
C47   H82   S    
C23   C41   A    
C195  C227  S    
C103  C137  A    
C218  H142  S    
C32   C62   S    
C86   O102  A    
C92   H106  S    
C154  H12   S    
C88   H73   S    
C46   C172  S    
C240  H19   S    
O130  Zn14  S    
C158  H16   S    
O71   Zn27  S    
C155  H108  S    
C205  O40   S    
C5    C21   A    
C33   C61   S    
C206  O39   S    
C210  H151  S    
C26   C69   S    
O56   Zn10  S    
O46   Zn7   S    
O104  Zn20  S    
O60   Zn11  S    
C199  C224  S    
O93   Zn8   S    
O110  Zn23  S    
C81   O95   A    
C73   O76   A    
C192  C231  S    
H64   O38   S    
C186  O35   A    
C145  C190  S    
C3    H20   S    
H45   O19   S    
C91   H95   S    
C147  C148  S    
O64   Zn18  S    
C168  C221  T    
C20   C56   S    
C39   H75   S    
C152  H10   S    
H44   O18   S    
C22   C54   S    
C52   O55   A    
C189  C234  S    
C106  H89   S    
C150  H8    S    
C142  C187  S    
C9    H27   S    
C106  C125  A    
C10   H28   S    
C29   C47   A    
C206  H154  S    
C30   C48   A    
C122  H104  S    
C156  H107  S    
H58   O31   S    
C204  H156  S    
C191  C214  S    
C166  O23   S    
H40   O14   S    
C104  C122  A    
C151  C195  S    
C57   C176  S    
C20   C38   A    
O51   Zn3   S    
O49   Zn31  S    
C167  C202  S    
C72   O75   A    
C78   C132  S    
C113  H126  S    
C149  C193  S    
C97   H2    S    
O54   Zn2   S    
C53   O56   A    
O76   Zn13  S    
O71   Zn15  S    
C91   C136  A    
C98   H13   S    
C147  C191  S    
C63   O119  A    
C207  O38   S    
C71   O80   A    
O86   Zn22  S    
C24   C170  S    
C190  C215  S    
O62   Zn16  S    
O121  Zn5   S    
C3    C240  A    
C220  H141  S    
O123  Zn7   S    
C141  H158  S    
O124  Zn8   S    
C207  C211  S    
C202  C221  S    
C156  C201  S    
O49   Zn12  S    
C207  H153  S    
C80   O98   A    
C75   O89   A    
O82   Zn32  S    
C176  C228  T    
C152  C196  S    
C35   C173  S    
C31   C63   S    
C209  H152  S    
C118  H100  S    
C165  C200  S    
C39   C40   A    
C190  C233  S    
C215  O30   S    
C142  H159  S    
C153  C198  S    
C217  C218  S    
C20   C240  A    
O13   Zn28  S    
C142  H121  S    
C115  C128  A    
H67   O41   S    
C100  C139  A    
C76   O84   A    
C4    C22   A    
C1    C178  S    
C169  C222  T    
C87   C105  A    
C212  C215  S    
O79   Zn16  S    
C209  C210  S    
C43   H79   S    
C161  H134  S    
C100  C119  A    
C44   H80   S    
O35   Zn23  S    
O93   Zn2   S    
C188  C235  S    
C73   O78   A    
C29   C65   S    
C74   O88   A    
O126  Zn30  S    
O100  Zn8   S    
C79   C113  S    
C12   C31   A    
O102  Zn6   S    
C15   H32   S    
C54   O57   A    
C2    C168  S    
C192  C213  S    
C2    O135  A    
O69   Zn24  S    
C76   C127  S    
O55   Zn9   S    
C163  O21   S    
C198  C207  S    
C200  C223  S    
C92   C134  A    
C216  C220  S    
O60   Zn28  S    
C82   O96   A    
H60   O33   S    
C145  H118  S    
C64   O67   A    
C45   H81   S    
C16   C32   A    
C183  C236  T    
C98   C139  A    
C102  H46   S    
C25   C52   S    
C135  O14   S    
C8    C27   A    
H56   O30   S    
C80   O91   A    
O75   Zn11  S    
O71   Zn13  S    
C51   H87   S    
O2    Zn31  S    
C7    C23   A    
C112  O127  A    
O106  Zn32  S    
C34   C36   A    
C50   H86   S    
O66   Zn20  S    
C27   C67   S    
C10   C11   A    
C17   C60   S    
C109  C126  A    
C13   C171  S    
C204  C205  S    
C93   H117  S    
C36   H71   S    
C197  O131  A    
C146  O15   S    
C58   O61   A    
C27   C44   A    
C55   O58   A    
O104  Zn3   S    
C18   C238  A    
C220  O26   S    
C187  C218  S    
C148  C192  S    
C147  H116  S    
C175  O129  A    
C200  C205  S    
C219  O45   A    
O105  Zn4   S    
C30   C64   S    
O84   Zn20  S    
C120  C131  A    
C41   C42   A    
H49   O22   S    
C193  C229  S    
H63   O37   S    
C57   O6    A    
C124  C190  S    
C70   O79   A    
C81   O92   A    
C84   O100  A    
C213  C214  S    
C149  H114  S    
C59   O62   A    
C114  H96   S    
C34   H70   S    
C157  O16   S    
C124  O12   S    
O128  Zn11  S    
C76   O86   A    
C155  H14   S    
C74   C125  S    
C90   C187  S    
C95   C114  A    
O135  Zn19  S    
C169  C230  S    
C107  H90   S    
O24   Zn29  S    
C182  C186  S    
C194  C228  S    
C7    H25   S    
C124  H127  S    
O90   Zn30  S    
O93   Zn26  S    
C104  H68   S    
C101  O10   S    
C150  C153  S    
H41   O15   S    
C151  C152  S    
C60   O63   A    
H42   O16   S    
C122  C129  A    
C77   O85   A    
C187  C236  S    
C164  C180  S    
C156  H15   S    
C78   O90   A    
C75   O83   A    
C208  O44   A    
C61   O117  A    
C68   O7    A    
C11   H29   S    
O47   Zn8   S    
C31   C49   A    
H34   O8    S    
C82   O94   A    
C62   O65   A    
H38   O11   S    
O127  Zn10  S    
C203  C206  S    
H36   O9    S    
C61   O64   A    
C79   H123  S    
C208  O132  A    
C195  C210  S    
C8    H26   S    
C219  O133  A    
C193  C212  S    
C238  H17   S    
C111  C123  A    
O115  Zn21  S    
C105  H88   S    
C145  H4    S    
O82   Zn25  S    
C166  C201  S    
O98   Zn12  S    
C41   H77   S    
C94   C111  A    
C13   O136  A    
C124  C157  S    
C215  H145  S    
C69   O124  A    
C148  H6    S    
C50   C51   A    
C159  C162  S    
C153  H110  S    
C102  C140  A    
C213  H147  S    
C97   C116  A    
C135  C191  S    
C182  C235  T    
O74   Zn10  S    
C160  C195  S    
C196  C209  S    
C48   C49   A    
O77   Zn14  S    
C74   O81   A    
O80   Zn17  S    
O116  Zn31  S    
C5    H22   S    
O136  Zn20  S    
C211  H149  S    
O109  Zn12  S    
O71   Zn29  S    
C143  H160  S    
C184  C237  T    
C83   C137  S    
C102  C120  A    
C72   C131  S    
C152  H111  S    
C210  O36   S    
C103  H57   S    
C238  C239  A    
O7    Zn26  S    
C37   H72   S    
C91   C108  A    
H66   O40   S    
O97   Zn1   S    
C25   C42   A    
H53   O27   S    
C159  O17   S    
C59   O114  A    
H54   O28   S    
C209  O37   S    
C33   C51   A    
C113  C189  S    
C42   H78   S    
C144  H119  S    
H52   O26   S    
C184  C208  S    
C109  H92   S    
C86   O105  A    
O67   Zn21  S    
C164  O128  A    
C178  C231  T    
C83   O106  A    
C49   H85   S    
O108  Zn1   S    
C84   O107  A    
C85   O101  A    
C154  C199  S    
C10   C29   A    
O63   Zn17  S    
C99   H24   S    
C69   O72   A    
C11   C28   A    
C113  O11   S    
O6    Zn25  S    
C23   C53   S    
C161  O19   S    
C181  C197  S    
C162  O20   S    
O58   Zn13  S    
C77   O87   A    
C78   O97   A    
O81   Zn18  S    
C58   O113  A    
C170  C223  T    
C217  O28   S    
C162  H135  S    
O101  Zn5   S    
C142  C143  S    
C1    O126  A    
C203  H157  S    
C179  C232  T    
C18   C36   A    
C145  C149  S    
C77   C126  S    
O93   Zn19  S    
O91   Zn31  S    
C112  C177  S    
C165  C166  S    
C67   O123  A    
C197  O43   A    
C239  H18   S    
C24   O50   A    
C174  C227  T    
O1    Zn1   S    
C171  C224  T    
C216  H144  S    
O118  Zn2   S    
C90   O9    S    
C52   O108  A    
C165  O22   S    
C75   C123  S    
O104  Zn22  S    
C173  C226  T    
C177  C229  T    
C165  H137  S    
C63   O66   A    
C15   C16   A    
C144  H3    S    
O50   Zn6   S    
H59   O32   S    
C95   H139  S    
C214  H146  S    
O113  Zn29  S    
C57   O53   A    
C194  C211  S    
H65   O39   S    
O1    Zn30  S    
C212  H148  S    
C116  C129  A    
C8    C9    A    
C24   O3    A    
O78   Zn15  S    
O103  Zn3   S    
C64   O120  A    
C96   C115  A    
C46   O52   A    
C6    H23   S    
O61   Zn15  S    
C85   C139  S    
C198  C225  S    
C86   C140  S    
C110  C127  A    
O111  Zn27  S    
C135  C146  S    
C66   O69   A    
C84   C138  S    
C149  H7    S    
H48   O21   S    
C89   C107  A    
C164  O13   A    
C14   C30   A    
O68   Zn22  S    
C181  C234  T    
O73   Zn9   S    
C55   O111  A    
C26   C43   A    
C4    H21   S    
C35   O4    A    
C48   H83   S    
C185  C237  S    
C28   C45   A    
C203  O42   S    
O53   Zn32  S    
H62   O36   S    
O82   Zn7   S    
C166  H138  S    
C96   C137  A    
C85   O103  A    
C114  C125  A    
C68   C174  S    
C191  C232  S    
C67   O70   A    
C175  C179  S    
C211  O34   S    
C120  H102  S    
C87   C132  A    
O115  Zn6   S    
C163  C167  S    
H69   O42   S    
C90   C101  S    
C40   H76   S    
C143  H120  S    
O45   Zn12  S    
C88   C106  A    
C18   C59   S    
C21   C39   A    
C22   C40   A    
C62   O118  A    
C186  O130  A    
C167  O25   S    
C150  H113  S    
O129  Zn13  S    
O60   Zn14  S    
C117  C130  A    
C32   C50   A    
C71   O74   A    
O131  Zn15  S    
H61   O34   S    
C158  H105  S    
C12   C14   A    
C212  O33   S    
C158  C202  S    
C201  C204  S    
O133  Zn17  S    
C99   C140  A    
C151  H9    S    
C141  C185  S    
C101  H125  S    
C97   C138  A    
C98   C117  A    
O44   Zn1   S    
C89   C134  A    
C79   C185  S    
O60   Zn23  S    
C204  O41   S    
C107  C126  A    
C16   H33   S    
O48   Zn5   S    
C180  C233  T    
C116  H98   S    
O112  Zn28  S    
C160  H133  S    
C66   O122  A    
C35   O51   A    
C160  C161  S    
O43   Zn27  S    
H43   O17   S    
C99   C118  A    
C54   O110  A    
C146  H130  S    
O134  Zn18  S    
C53   O109  A    
H51   O25   S    
C104  C138  A    
O59   Zn14  S    
O65   Zn19  S    
C108  C127  A    
C82   C136  S    
C70   O73   A    
C163  C199  S    
C159  H132  S    
C213  O32   S    
O83   Zn19  S    
C2    O47   A    
C147  H5    S    
C214  O31   S    
C217  H143  S    
O49   Zn17  S    
C96   H150  S    
H39   O12   S    
C15   C33   A    
O70   Zn25  S    
C155  C200  S    
H50   O23   S    
O99   Zn7   S    
C141  H122  S    
C160  O18   S    
