data_mof_unit_pretest_1162.cif
_audit_creation_date              2012-12-11T14:13:09-0500
_audit_creation_method            fapswitch 2.2
_symmetry_space_group_name_H-M    P1
_symmetry_Int_Tables_number       1
_space_group_crystal_system       triclinic
_cell_length_a                    11.746372
_cell_length_b                    18.633659
_cell_length_c                    10.148634
_cell_angle_alpha                 89.999977
_cell_angle_beta                  110.705382
_cell_angle_gamma                 89.999933
_cell_volume                      2077.8389128

loop_
_atom_site_label
_atom_site_type_symbol
_atom_type_description
_atom_site_fract_x
_atom_site_fract_y
_atom_site_fract_z
_atom_type_partial_charge
C1    C     C_R   0.073706 0.646703 0.140356 0.597588
C2    C     C_R   0.926294 0.353297 0.859643 0.597589
C3    C     C_R   0.926294 0.146703 0.859643 0.597593
C4    C     C_R   0.073705 0.853297 0.140356 0.597591
C5    C     C_R   0.399110 0.464080 0.514815 -0.030680
C6    C     C_R   0.600890 0.535920 0.485184 -0.030680
C7    C     C_R   0.600889 0.964079 0.485185 -0.030681
C8    C     C_R   0.399109 0.035921 0.514817 -0.030677
C9    C     C_2   0.394067 0.927944 0.934607 -0.053506
C10   C     C_2   0.605934 0.072057 0.065396 -0.053509
C11   C     C_2   0.605932 0.427943 0.065397 -0.053509
C12   C     C_2   0.394069 0.572057 0.934602 -0.053509
C13   C     C_2   0.500073 0.960744 0.991990 0.166438
C14   C     C_2   0.499928 0.039257 0.008015 0.166437
C15   C     C_2   0.499927 0.460743 0.008012 0.166439
C16   C     C_2   0.500073 0.539257 0.991989 0.166439
C17   C     C_2   0.019129 0.923911 0.118197 0.006751
C18   C     C_2   0.980863 0.076088 0.881796 0.006764
C19   C     C_2   0.980872 0.423910 0.881803 0.006751
C20   C     C_2   0.019128 0.576090 0.118197 0.006751
C21   C     C_2   0.999536 0.960545 0.998309 0.198796
C22   C     C_2   0.000469 0.039454 0.001686 0.198796
C23   C     C_2   0.000463 0.460546 0.001690 0.198796
C24   C     C_2   0.999536 0.539454 0.998310 0.198796
C25   C     C_R   0.471778 0.647116 0.442344 0.579745
C26   C     C_R   0.528222 0.352884 0.557656 0.579745
C27   C     C_R   0.528221 0.147117 0.557656 0.579745
C28   C     C_R   0.471778 0.852883 0.442344 0.579747
C29   C     C_R   0.375584 0.645591 0.964144 0.554185
C30   C     C_R   0.624416 0.354409 0.035856 0.554186
C31   C     C_R   0.624416 0.145591 0.035856 0.554185
C32   C     C_R   0.375584 0.854409 0.964145 0.554185
C33   C     C_R   0.492943 0.424417 0.489039 0.042478
C34   C     C_R   0.507057 0.575583 0.510960 0.042477
C35   C     C_R   0.507055 0.924416 0.510960 0.042479
C36   C     C_R   0.492942 0.075583 0.489039 0.042479
C37   C     C_R   0.289683 0.432484 0.517377 0.269709
C38   C     C_R   0.710317 0.567516 0.482621 0.269710
C39   C     C_R   0.710316 0.932482 0.482622 0.269710
C40   C     C_R   0.289684 0.067517 0.517387 0.269713
C41   C     C_R   0.213368 0.471424 0.571183 0.355399
C42   C     C_R   0.786632 0.528576 0.428816 0.355400
C43   C     C_R   0.786630 0.971422 0.428815 0.355394
C44   C     C_R   0.213371 0.028578 0.571197 0.355397
C45   C     C_R   0.235143 0.543679 0.607537 0.253935
C46   C     C_R   0.764857 0.456321 0.392462 0.253936
C47   C     C_R   0.764858 0.043677 0.392463 0.253934
C48   C     C_R   0.235143 0.956322 0.607545 0.253931
C49   C     C_R   0.341340 0.574820 0.601700 -0.152398
C50   C     C_R   0.658660 0.425180 0.398299 -0.152398
C51   C     C_R   0.658662 0.074819 0.398303 -0.152395
C52   C     C_R   0.341338 0.925180 0.601700 -0.152401
C53   C     C_R   0.416995 0.538077 0.544233 -0.079119
C54   C     C_R   0.583005 0.461923 0.455766 -0.079118
C55   C     C_R   0.583005 0.038077 0.455768 -0.079119
C56   C     C_R   0.416992 0.961923 0.544233 -0.079116
Cr1   Cr    Cr6+3 0.187610 0.750000 0.979860 1.132309
Cr2   Cr    Cr6+3 0.812390 0.250000 0.020140 1.132301
Cr3   Cr    Cr6+3 0.245810 0.750000 0.341640 0.991933
Cr4   Cr    Cr6+3 0.754190 0.250000 0.658360 0.991933
Cr5   Cr    Cr6+3 0.485760 0.750000 0.219910 1.207229
Cr6   Cr    Cr6+3 0.514240 0.250000 0.780090 1.207229
H1    H     H_    0.367711 0.627776 0.645104 0.144315
H2    H     H_    0.632290 0.372223 0.354896 0.144315
H3    H     H_    0.632294 0.127776 0.354901 0.144317
H4    H     H_    0.367704 0.872222 0.645099 0.144316
H5    H     H_    0.688699 0.041231 0.110041 0.193402
H6    H     H_    0.311303 0.958769 0.889961 0.193403
H7    H     H_    0.311304 0.541232 0.889952 0.193403
H8    H     H_    0.688696 0.458768 0.110047 0.193404
H9    H     H_    0.976946 0.048745 0.786520 0.192150
H10   H     H_    0.023027 0.951253 0.213468 0.192159
H11   H     H_    0.023024 0.548749 0.213468 0.192162
H12   H     H_    0.976976 0.451251 0.786532 0.192162
O1    O     O_R   0.267710 0.668200 0.902110 -0.512419
O2    O     O_R   0.732290 0.331800 0.097890 -0.512419
O3    O     O_R   0.732290 0.168200 0.097890 -0.512427
O4    O     O_R   0.267710 0.831800 0.902110 -0.512414
O5    O     O_R   0.099480 0.674460 0.038850 -0.428317
O6    O     O_R   0.900520 0.325540 0.961150 -0.428316
O7    O     O_R   0.900520 0.174460 0.961150 -0.428321
O8    O     O_R   0.099480 0.825540 0.038850 -0.428316
O9    O     O_R   0.116720 0.669210 0.267660 -0.536769
O10   O     O_R   0.883280 0.330790 0.732340 -0.536768
O11   O     O_R   0.883280 0.169210 0.732340 -0.536771
O12   O     O_R   0.116720 0.830790 0.267660 -0.536771
O13   O     O_R   0.366710 0.675440 0.427590 -0.534873
O14   O     O_R   0.633290 0.324560 0.572410 -0.534873
O15   O     O_R   0.633290 0.175440 0.572410 -0.534876
O16   O     O_R   0.366710 0.824560 0.427590 -0.534876
O17   O     O_R   0.534870 0.669390 0.371760 -0.440320
O18   O     O_R   0.465130 0.330610 0.628240 -0.440320
O19   O     O_R   0.465130 0.169390 0.628240 -0.440323
O20   O     O_R   0.534870 0.830610 0.371760 -0.440321
O21   O     O_R   0.453080 0.674480 0.075160 -0.438131
O22   O     O_R   0.546920 0.325520 0.924840 -0.438132
O23   O     O_R   0.546920 0.174480 0.924840 -0.438132
O24   O     O_R   0.453080 0.825520 0.075160 -0.438133
O25   O     O_3   0.306390 0.750000 0.180470 -0.314578
O26   O     O_3   0.693610 0.250000 0.819530 -0.314578
Cl1   Cl    Cl    0.095268 0.428270 0.605704 -0.470678
Cl2   Cl    Cl    0.904733 0.571730 0.394295 -0.470679
Cl3   Cl    Cl    0.904729 0.928267 0.394292 -0.470695
Cl4   Cl    Cl    0.095275 0.071733 0.605729 -0.470685
O27   O     O_3   0.156856 0.579937 0.660433 -0.480858
C57   C     C_3   0.133472 0.650822 0.607577 0.024380
H13   H     H_    0.106605 0.652260 0.492253 0.182414
H14   H     H_    0.212248 0.686858 0.653964 0.060187
H15   H     H_    0.057012 0.673113 0.634704 0.219503
O28   O     O_3   0.843144 0.420063 0.339566 -0.480857
C58   C     C_3   0.866528 0.349178 0.392423 0.024378
H16   H     H_    0.787753 0.313141 0.346033 0.060190
H17   H     H_    0.893392 0.347739 0.507746 0.182412
H18   H     H_    0.942990 0.326887 0.365299 0.219504
O29   O     O_3   0.843145 0.079934 0.339566 -0.480870
C59   C     C_3   0.866532 0.150819 0.392424 0.024370
H19   H     H_    0.893394 0.152256 0.507747 0.182415
H20   H     H_    0.787758 0.186857 0.346034 0.060193
H21   H     H_    0.942995 0.173109 0.365301 0.219503
O30   O     O_3   0.156856 0.920064 0.660437 -0.480861
C60   C     C_3   0.133466 0.849182 0.607571 0.024363
H22   H     H_    0.212228 0.813139 0.653977 0.060207
H23   H     H_    0.106629 0.847745 0.492253 0.182395
H24   H     H_    0.056985 0.826898 0.634663 0.219523
Cl5   Cl    Cl    0.236733 0.348549 0.436243 -0.385139
Cl6   Cl    Cl    0.763267 0.651451 0.563755 -0.385141
Cl7   Cl    Cl    0.763266 0.848548 0.563759 -0.385148
Cl8   Cl    Cl    0.236731 0.151455 0.436259 -0.385134
Cl9   Cl    Cl    0.361696 0.089385 0.959257 -0.532268
Cl10  Cl    Cl    0.638304 0.910616 0.040749 -0.532282
Cl11  Cl    Cl    0.638305 0.589383 0.040756 -0.532282
Cl12  Cl    Cl    0.361695 0.410617 0.959248 -0.532281
Cl13  Cl    Cl    0.030461 0.084203 0.165112 -0.474338
Cl14  Cl    Cl    0.969562 0.915797 0.834886 -0.474332
Cl15  Cl    Cl    0.969567 0.584201 0.834886 -0.474333
Cl16  Cl    Cl    0.030432 0.415800 0.165114 -0.474332

loop_
_geom_bond_atom_site_label_1
_geom_bond_atom_site_label_2
_ccdc_geom_bond_type
C44   C48   A    
C12   H7    S    
C49   H1    S    
C5    C37   A    
C12   C29   S    
C3    O11   A    
C50   H2    S    
Cr1   O5    S    
C2    O10   A    
C58   H16   S    
C7    C55   A    
C8    C56   A    
C44   Cl4   S    
C11   H8    S    
Cr2   O2    S    
C48   O30   S    
C10   H5    S    
C47   O29   S    
C50   C54   A    
C23   Cl16  S    
C5    C53   A    
Cr3   O9    S    
C38   C42   A    
Cr6   O22   S    
C51   H3    S    
C4    O12   A    
C57   H13   S    
C26   O18   A    
C15   C16   S    
C40   Cl8   S    
C33   C54   A    
Cr3   O25   S    
C59   H19   S    
C3    C18   S    
C28   O20   A    
C8    C36   A    
C16   Cl11  S    
C9    C13   D    
O28   C58   S    
C60   H24   S    
C30   O22   A    
C9    C32   S    
C11   C15   D    
C10   C31   S    
C15   Cl12  S    
C20   C24   D    
C11   C30   S    
C32   O24   A    
C5    C33   A    
C3    O7    A    
C23   C24   S    
C6    C38   A    
C40   C44   A    
Cr2   O3    S    
Cr2   O6    S    
C25   C34   S    
C35   C56   A    
C21   C22   S    
Cr5   O25   S    
C6    C54   A    
C42   Cl2   S    
C38   Cl6   S    
C45   O27   S    
C31   O3    A    
C37   Cl5   S    
Cr4   O14   S    
C25   O17   A    
C39   Cl7   S    
C22   Cl13  S    
C12   C16   D    
Cr2   O26   S    
C28   C35   S    
C10   C14   D    
Cr2   O7    S    
C29   O21   A    
Cr5   O20   S    
C39   C43   A    
Cr3   O12   S    
Cr4   O15   S    
C17   C21   D    
C6    C34   A    
Cr6   O18   S    
Cr3   O16   S    
C19   C23   D    
C17   H10   S    
Cr6   O23   S    
C30   O2    A    
C26   C33   S    
C45   C49   A    
C13   Cl10  S    
C58   H17   S    
C60   H22   S    
C59   H20   S    
Cr6   O26   S    
C4    C17   S    
C24   Cl15  S    
C46   O28   S    
C42   C46   A    
C1    O5    A    
C27   O19   A    
C21   Cl14  S    
C52   H4    S    
O30   C60   S    
C18   H9    S    
C1    C20   S    
C7    C39   A    
C2    C19   S    
C18   C22   D    
C7    C35   A    
Cr1   O4    S    
C19   H12   S    
Cr4   O26   S    
C43   Cl3   S    
C47   C51   A    
Cr4   O11   S    
Cr5   O21   S    
C29   O1    A    
C27   C36   S    
C1    O9    A    
O27   C57   S    
C46   C50   A    
C59   H21   S    
Cr1   O1    S    
C9    H6    S    
C36   C55   A    
Cr4   O10   S    
Cr5   O24   S    
O29   C59   S    
C57   H14   S    
C49   C53   A    
C41   Cl1   S    
C20   H11   S    
C27   O15   A    
C58   H18   S    
C51   C55   A    
C31   O23   A    
C37   C41   A    
Cr3   O13   S    
C60   H23   S    
C2    O6    A    
C32   O4    A    
C25   O13   A    
C52   C56   A    
C48   C52   A    
C4    O8    A    
C34   C53   A    
C26   O14   A    
Cr6   O19   S    
C41   C45   A    
Cr1   O8    S    
C28   O16   A    
C8    C40   A    
C13   C14   S    
C43   C47   A    
C14   Cl9   S    
Cr5   O17   S    
C57   H15   S    
Cr1   O25   S    
