data_mof_unit_pretest_1698.cif
_audit_creation_date              2013-03-05T15:57:59-0500
_audit_creation_method            fapswitch 2.2
_symmetry_space_group_name_H-M    P1
_symmetry_Int_Tables_number       1
_space_group_crystal_system       triclinic
_cell_length_a                    18.639218
_cell_length_b                    18.635472
_cell_length_c                    18.753787
_cell_angle_alpha                 109.504121
_cell_angle_beta                  109.47286
_cell_angle_gamma                 109.143987
_cell_volume                      5032.57361859

loop_
_atom_site_label
_atom_site_type_symbol
_atom_site_description
_atom_site_fract_x
_atom_site_fract_y
_atom_site_fract_z
_atom_type_partial_charge
O1    O     O_R   0.408680 0.356690 0.448540 -0.595073
O2    O     O_R   0.408060 0.460070 0.551440 -0.635092
C1    C     C_R   0.379729 0.379554 0.500063 0.900265
O3    O     O_R   0.592410 0.448290 0.540650 -0.632901
O4    O     O_R   0.591790 0.551670 0.643550 -0.631127
C2    C     C_R   0.621260 0.500237 0.620562 0.850704
Zn1   Zn    Zn3+2 0.500420 0.430970 0.431290 1.025649
Zn2   Zn    Zn3+2 0.499580 0.569030 0.568710 0.968052
O5    O     O_R   0.591940 0.539930 0.448560 -0.624369
O6    O     O_R   0.591320 0.643310 0.551460 -0.628032
O7    O     O_R   0.408210 0.448330 0.356450 -0.580213
O8    O     O_R   0.407590 0.551710 0.459350 -0.628145
C3    C     C_R   0.620358 0.620353 0.499931 0.864339
C4    C     C_R   0.377425 0.498419 0.379232 0.953944
C5    C     C_3   0.720072 0.437458 0.647817 -0.418653
H1    H     H_    0.744456 0.456351 0.606605 0.218741
H2    H     H_    0.663672 0.369463 0.604196 0.161615
C6    C     C_3   0.791340 0.438661 0.720363 0.135930
H3    H     H_    0.764915 0.371540 0.712026 0.099327
H4    H     H_    0.797682 0.614432 0.710517 0.176039
H5    H     H_    0.901598 0.624648 0.825175 0.200175
C7    C     C_3   0.768825 0.594577 0.748652 -0.418620
C8    C     C_3   0.652201 0.471121 0.742363 -0.412579
C9    C     C_3   0.689303 0.500554 0.688285 0.093541
H6    H     H_    0.632526 0.517211 0.774249 0.202573
H7    H     H_    0.592799 0.405049 0.699073 0.163054
C10   C     C_3   0.809346 0.502924 0.811146 -0.002301
C11   C     C_3   0.838581 0.597708 0.824489 -0.114572
C12   C     C_3   0.721649 0.468645 0.812591 -0.438101
H8    H     H_    0.697110 0.400033 0.799779 0.192137
H9    H     H_    0.731199 0.508550 0.877717 0.198729
H10   H     H_    0.747407 0.642169 0.773426 0.190728
C13   C     C_R   0.253765 0.329720 0.521434 -0.146516
H11   H     H_    0.256277 0.392401 0.538340 0.161329
C14   C     C_R   0.189260 0.264864 0.519761 -0.188734
H12   H     H_    0.142651 0.277780 0.536278 0.150352
C15   C     C_R   0.186000 0.184172 0.498315 -0.049079
C16   C     C_R   0.245985 0.166667 0.476777 -0.001354
C17   C     C_R   0.309598 0.231462 0.477101 -0.197311
H13   H     H_    0.356353 0.218943 0.460473 0.155797
C18   C     C_R   0.313588 0.312800 0.499877 -0.028263
C19   C     C_R   0.311412 0.575378 0.325418 -0.253063
H14   H     H_    0.362889 0.636094 0.384995 0.176824
C20   C     C_R   0.249822 0.577313 0.261141 -0.033174
C21   C     C_R   0.184403 0.498591 0.183470 -0.234029
C22   C     C_R   0.179823 0.417864 0.170532 0.211784
C23   C     C_R   0.241845 0.416431 0.236302 0.223340
C24   C     C_R   0.308294 0.496055 0.312893 -0.207224
C25   C     C_R   0.745777 0.767429 0.575322 -0.172018
H15   H     H_    0.742867 0.781576 0.634906 0.159531
C26   C     C_R   0.810269 0.830263 0.574951 -0.190157
H16   H     H_    0.856464 0.893165 0.633883 0.152148
C27   C     C_R   0.814041 0.812373 0.498265 -0.049307
C28   C     C_R   0.754602 0.731134 0.421550 -0.002816
C29   C     C_R   0.691010 0.667848 0.422749 -0.205722
H17   H     H_    0.644685 0.604683 0.364067 0.161317
C30   C     C_R   0.686489 0.686341 0.499339 -0.039600
O9    O     O_R   0.946090 0.356640 0.906180 -0.607262
O10   O     O_R   0.049540 0.460010 0.906120 -0.606524
C31   C     C_R   0.997779 0.379692 0.877495 0.942923
O11   O     O_R   0.853500 0.448290 0.905220 -0.642148
O12   O     O_R   0.956960 0.551660 0.905160 -0.596979
C32   C     C_R   0.876683 0.502464 0.879054 0.855355
Zn3   Zn    Zn3+2 0.928250 0.430930 0.997320 1.015079
Zn4   Zn    Zn3+2 0.066410 0.568980 0.997240 1.029334
O13   O     O_R   0.945110 0.539900 0.088450 -0.629535
O14   O     O_R   0.048570 0.643270 0.088390 -0.622940
O15   O     O_R   0.037700 0.448250 0.089410 -0.590817
O16   O     O_R   0.141150 0.551620 0.089350 -0.621904
C33   C     C_R   0.997047 0.620340 0.117317 0.853473
C34   C     C_R   0.118050 0.499642 0.117755 0.947463
O17   O     O_R   0.948590 0.908340 0.356800 -0.612400
O18   O     O_R   0.052580 0.908350 0.460820 -0.615025
C35   C     C_R   0.001017 0.880064 0.380624 0.863454
O19   O     O_R   0.039640 0.091520 0.447910 -0.611135
O20   O     O_R   0.143620 0.091540 0.551930 -0.617434
C36   C     C_R   0.119965 0.119500 0.499541 0.857965
Zn5   Zn    Zn3+2 0.930570 0.999900 0.430450 1.001934
Zn6   Zn    Zn3+2 0.069430 0.999920 0.569370 0.997012
O21   O     O_R   0.947420 0.091470 0.539000 -0.618201
O22   O     O_R   0.051410 0.091490 0.643030 -0.615989
O23   O     O_R   0.856380 0.908290 0.447890 -0.614256
O24   O     O_R   0.960370 0.908300 0.551910 -0.615883
C37   C     C_R   0.999133 0.120024 0.619279 0.852784
C38   C     C_R   0.880048 0.879615 0.499577 0.857449
C39   C     C_R   0.077940 0.322197 0.819135 -0.115821
H18   H     H_    0.139517 0.377910 0.874257 0.155621
C40   C     C_R   0.078270 0.257566 0.756095 -0.169757
H19   H     H_    0.140100 0.263583 0.762022 0.149375
C41   C     C_R   0.998681 0.186316 0.684842 -0.017036
C42   C     C_R   0.918758 0.178381 0.676553 -0.167747
H20   H     H_    0.857196 0.122775 0.621304 0.146971
C43   C     C_R   0.918449 0.241666 0.740989 -0.122332
H21   H     H_    0.856637 0.235542 0.735232 0.144462
C44   C     C_R   0.998047 0.313543 0.811610 0.020275
C45   C     C_R   0.012777 0.765537 0.185531 -0.146575
H22   H     H_    0.022104 0.776915 0.135480 0.165460
C46   C     C_R   0.013059 0.829217 0.250070 -0.156104
H23   H     H_    0.022710 0.889835 0.250085 0.151596
C47   C     C_R   0.002032 0.814765 0.314997 -0.001667
C48   C     C_R   0.990047 0.737235 0.315962 -0.163681
H24   H     H_    0.981169 0.726472 0.366478 0.145969
C49   C     C_R   0.987066 0.672375 0.249884 -0.166754
H25   H     H_    0.977001 0.611733 0.249944 0.155300
C50   C     C_R   0.998610 0.686849 0.184977 -0.017997
C51   C     C_1   0.854165 0.659585 0.909248 0.145300
N1    N     N_1   0.866186 0.707930 0.975466 -0.203189
C52   C     C_1   0.241772 0.082483 0.452010 0.158624
N2    N     N_1   0.238263 0.015048 0.432116 -0.182872
C53   C     C_1   0.253360 0.660323 0.277540 0.200158
N3    N     N_1   0.256062 0.726666 0.290633 -0.183525
N4    N     N_R   0.112177 0.337660 0.091172 0.240530
O25   O     O_R   0.101371 0.329693 0.016184 -0.406641
O26   O     O_R   0.062442 0.271761 0.093763 -0.314724
N5    N     N_R   0.237019 0.334606 0.225468 0.241217
O27   O     O_R   0.234085 0.311971 0.283435 -0.377169
O28   O     O_R   0.233280 0.281530 0.156597 -0.318642
C54   C     C_1   0.759395 0.710828 0.342377 0.156538
N6    N     N_1   0.763375 0.694647 0.279090 -0.185898
N7    N     N_R   0.870580 0.458780 0.712477 0.218585
O29   O     O_R   0.908081 0.527112 0.706242 -0.396806
O30   O     O_R   0.900040 0.403864 0.704642 -0.406655

loop_
_geom_bond_atom_site_label_1
_geom_bond_atom_site_label_2
_geom_bond_distance
_ccdc_geom_bond_type
C5    C6    1.539894 S    
C45   C50   1.397917 A    
C43   H21   1.083830 S    
C22   N4    1.437427 S    
C10   C12   1.561082 S    
O18   C35   1.279892 A    
C28   C29   1.383822 A    
C14   H12   1.084157 S    
O20   Zn6   2.015003 S    
O21   C37   1.280623 A    
C25   C26   1.379839 A    
N4    O26   1.301161 A    
C17   C18   1.399316 A    
O13   C33   1.278376 A    
C27   C28   1.404298 A    
N7    O29   1.301510 A    
Zn1   O7    2.021914 S    
C15   C16   1.404289 A    
C37   C41   1.427409 S    
C8    C12   1.534738 S    
C14   C15   1.395197 A    
O4    C2    1.278109 A    
O7    C4    1.277313 A    
C39   C40   1.381025 A    
C3    C30   1.433797 S    
C51   N1    1.157157 T    
O9    C31   1.276935 A    
N5    O27   1.301318 A    
C25   C30   1.397205 A    
C52   N2    1.157349 T    
O16   C34   1.277234 A    
C6    H3    1.116070 S    
C8    H7    1.113606 S    
O11   C32   1.277796 A    
O5    C3    1.276653 A    
C54   N6    1.157352 T    
O17   Zn5   2.010822 S    
C53   N3    1.157379 T    
C6    N7    1.470822 S    
O12   C32   1.277202 A    
C11   C51   1.479612 S    
Zn4   O14   2.012447 S    
C45   C46   1.380505 A    
C8    C9    1.548527 S    
O10   C31   1.276831 A    
C43   C44   1.396890 A    
C7    C11   1.542270 S    
C27   C38   1.425692 S    
C19   C20   1.380514 A    
O3    Zn1   2.025043 S    
N4    O25   1.300948 A    
N7    O30   1.300921 A    
O9    Zn3   2.012320 S    
C26   H16   1.084144 S    
C48   H24   1.083858 S    
O20   C36   1.278620 A    
O17   C35   1.279085 A    
C17   H13   1.084947 S    
Zn6   O22   2.011035 S    
C39   H18   1.083789 S    
C35   C47   1.423536 S    
N5    O28   1.301185 A    
C21   C22   1.409805 A    
C15   C36   1.425630 S    
O6    C3    1.278412 A    
O1    C1    1.276693 A    
Zn3   O13   2.012270 S    
O11   Zn3   2.023238 S    
C23   N5    1.437192 S    
C12   H8    1.113471 S    
C42   C43   1.381530 A    
Zn5   O23   2.014879 S    
C23   C24   1.408623 A    
Zn2   O8    2.025041 S    
C2    C9    1.462089 S    
C45   H22   1.083400 S    
C29   H17   1.084938 S    
C13   H11   1.083555 S    
O18   Zn6   2.014279 S    
C49   C50   1.398777 A    
C19   C24   1.395137 A    
O19   C36   1.278804 A    
C7    H10   1.114700 S    
O3    C2    1.274664 A    
C5    C9    1.556933 S    
O24   C38   1.278872 A    
H5    C11   1.109372 S    
O8    C4    1.278314 A    
C25   H15   1.083593 S    
C46   C47   1.395313 A    
C28   C54   1.446103 S    
C7    C9    1.549832 S    
C19   H14   1.085465 S    
Zn3   O15   2.023747 S    
C42   H20   1.083760 S    
O22   C37   1.280317 A    
C20   C21   1.405832 A    
C5    H2    1.113870 S    
C22   C23   1.396452 A    
C1    C18   1.433774 S    
C40   C41   1.396763 A    
O12   Zn4   2.023660 S    
O1    Zn1   2.014970 S    
Zn2   O6    2.014971 S    
O2    Zn2   2.014578 S    
C6    C10   1.561847 S    
H4    C7    1.113706 S    
C33   C50   1.431279 S    
O4    Zn2   2.021915 S    
C4    C24   1.437867 S    
O23   C38   1.278732 A    
O14   C33   1.277553 A    
C13   C18   1.397220 A    
C29   C30   1.399350 A    
O2    C1    1.278383 A    
C12   H9    1.112715 S    
O10   Zn4   2.012096 S    
Zn6   O24   2.015217 S    
C41   C42   1.396795 A    
C16   C17   1.383904 A    
O15   C34   1.277210 A    
Zn4   O16   2.023280 S    
C47   C48   1.395050 A    
C13   C14   1.379760 A    
Zn5   O21   2.014278 S    
C8    H6    1.113394 S    
C16   C52   1.446152 S    
O19   Zn5   2.015341 S    
C39   C44   1.396654 A    
C31   C44   1.427382 S    
Zn1   O5    2.014579 S    
C40   H19   1.083798 S    
C48   C49   1.381861 A    
C46   H23   1.083955 S    
C49   H25   1.083625 S    
C10   C32   1.464885 S    
C21   C34   1.436885 S    
C26   C27   1.395345 A    
C5    H1    1.113034 S    
C10   C11   1.569140 S    
C20   C53   1.446996 S    
