data_mof_unit_pretest_1878.cif
_audit_creation_date              2012-12-10T18:24:06-0500
_audit_creation_method            fapswitch 2.2
_symmetry_space_group_name_H-M    P1
_symmetry_Int_Tables_number       1
_space_group_crystal_system       triclinic
_cell_length_a                    16.089499
_cell_length_b                    16.089535
_cell_length_c                    16.09788
_cell_angle_alpha                 95.885687
_cell_angle_beta                  84.405122
_cell_angle_gamma                 90.136615
_cell_volume                      4125.4614455

loop_
_atom_site_label
_atom_site_type_symbol
_atom_type_description
_atom_site_fract_x
_atom_site_fract_y
_atom_site_fract_z
_atom_type_partial_charge
C1    C     C_R   0.510671 0.724331 0.510727 0.509123
C2    C     C_1   0.485026 0.186251 0.484974 0.020087
C3    C     C_1   0.514749 0.483746 0.184798 0.034868
C4    C     C_R   0.489305 0.275675 0.489263 0.507510
C5    C     C_2   0.521265 0.476564 0.019165 -0.048714
C6    C     C_2   0.474753 0.527804 0.981649 0.249492
C7    C     C_1   0.480495 0.521478 0.890780 -0.061993
C8    C     C_1   0.517851 0.480327 0.109390 0.024052
C9    C     C_1   0.484770 0.516770 0.815251 -0.002852
C10   C     C_R   0.510777 0.488123 0.274564 0.508733
C11   C     C_R   0.489243 0.511846 0.725432 0.512510
C12   C     C_1   0.111111 0.520619 0.520563 -0.037103
C13   C     C_R   0.724321 0.488156 0.488185 0.506839
C14   C     C_R   0.275674 0.511864 0.511826 0.509812
C15   C     C_1   0.813747 0.483403 0.483430 0.020043
C16   C     C_2   0.978700 0.474473 0.474492 -0.116565
C17   C     C_2   0.021298 0.525529 0.525470 -0.117519
C18   C     C_1   0.888886 0.479383 0.479406 -0.038578
C19   C     C_1   0.186250 0.516604 0.516555 0.021965
C20   C     C_1   0.514951 0.813756 0.515041 0.021932
C21   C     C_2   0.523006 0.978708 0.523134 -0.117268
C22   C     C_2   0.476968 0.021300 0.476901 -0.117049
C23   C     C_1   0.481401 0.111113 0.481342 -0.038479
C24   C     C_1   0.518575 0.888895 0.518686 -0.037345
H1    H     H_    0.988882 0.571516 0.571395 0.139790
H2    H     H_    0.011116 0.428485 0.428567 0.142096
H3    H     H_    0.435494 0.988881 0.435263 0.141783
H4    H     H_    0.564480 0.011127 0.564772 0.140724
H5    H     H_    0.562783 0.430824 0.981926 0.079213
H6    H     H_    0.393348 0.617484 0.990894 0.332422
O1    O     O_3   0.500000 0.500000 0.500000 -0.441220
O2    O     O_R   0.689040 0.536050 0.444000 -0.534187
O3    O     O_R   0.315570 0.560650 0.560630 -0.533978
O4    O     O_R   0.679800 0.444450 0.536560 -0.534878
O5    O     O_R   0.315590 0.458850 0.458810 -0.532733
O6    O     O_3   0.422125 0.585783 0.029563 -0.673553
O7    O     O_R   0.458170 0.444480 0.314880 -0.532825
O8    O     O_R   0.445130 0.560630 0.690220 -0.532887
O9    O     O_R   0.559450 0.679320 0.457680 -0.531876
O10   O     O_R   0.537250 0.315570 0.537220 -0.535274
O11   O     O_R   0.458120 0.689530 0.559970 -0.534054
O12   O     O_R   0.445170 0.315580 0.445130 -0.534600
O13   O     O_R   0.559480 0.536070 0.314410 -0.532459
O14   O     O_R   0.537220 0.458810 0.680490 -0.535075
Zn1   Zn    Zn3+2 0.430930 0.430930 0.430910 0.959359
Zn2   Zn    Zn3+2 0.575680 0.561790 0.430230 0.960080
Zn3   Zn    Zn3+2 0.562480 0.430910 0.562480 0.952823
Zn4   Zn    Zn3+2 0.430910 0.576380 0.576380 0.957811

loop_
_geom_bond_atom_site_label_1
_geom_bond_atom_site_label_2
_ccdc_geom_bond_type
C12   C17   S    
O10   Zn3   S    
C2    C4    S    
O12   Zn1   S    
C6    C7    S    
C15   C18   T    
C13   O2    A    
O8    Zn4   S    
O14   Zn3   S    
H6    O6    S    
C22   H3    S    
C17   H1    S    
C14   O3    A    
C11   O14   A    
C3    C10   S    
O1    Zn3   S    
C21   C22   D    
C9    C11   S    
C4    O12   A    
C10   O7    A    
C12   C19   T    
C1    O11   A    
C21   H4    S    
C6    O6    S    
O9    Zn2   S    
C5    H5    S    
O1    Zn4   S    
C13   C15   S    
C16   H2    S    
C5    C6    D    
O13   Zn2   S    
C5    C8    S    
C1    O9    A    
O7    Zn1   S    
O5    Zn1   S    
C4    O10   A    
C2    C23   T    
C16   C18   S    
C3    C8    T    
O1    Zn1   S    
C21   C24   S    
C14   O5    A    
C7    C9    T    
O3    Zn4   S    
C22   C23   S    
C11   O8    A    
C13   O4    A    
O4    Zn3   S    
C10   O13   A    
O2    Zn2   S    
C14   C19   S    
O11   Zn4   S    
C20   C24   T    
C16   C17   D    
C1    C20   S    
O1    Zn2   S    
