data_mof_unit_pretest_622.cif
_audit_creation_date              2012-12-10T20:05:38-0500
_audit_creation_method            fapswitch 2.2
_symmetry_space_group_name_H-M    P1
_symmetry_Int_Tables_number       1
_space_group_crystal_system       triclinic
_cell_length_a                    12.86581
_cell_length_b                    18.873983
_cell_length_c                    18.552973
_cell_angle_alpha                 89.386854
_cell_angle_beta                  97.452003
_cell_angle_gamma                 90.720516
_cell_volume                      4466.6096392

loop_
_atom_site_label
_atom_site_type_symbol
_atom_type_description
_atom_site_fract_x
_atom_site_fract_y
_atom_site_fract_z
_atom_type_partial_charge
C1    C     C_R   0.498640 0.365337 0.500231 0.907350
C2    C     C_R   0.495224 0.635140 0.499059 0.908432
C3    C     C_R   0.402459 0.851394 0.477189 0.171488
C4    C     C_R   0.414796 0.149261 0.478688 0.162239
C5    C     C_R   0.453661 0.826934 0.543995 -0.224785
C6    C     C_R   0.514794 0.171925 0.464511 -0.193229
C7    C     C_R   0.480398 0.755612 0.554084 0.424768
C8    C     C_R   0.545259 0.242689 0.473472 0.419105
C9    C     C_R   0.467055 0.710227 0.493684 -0.145193
C10   C     C_R   0.475763 0.290414 0.498448 -0.136408
C11   C     C_R   0.334698 0.963654 0.522857 0.324498
C12   C     C_R   0.405431 0.038126 0.406298 0.324410
C13   C     C_R   0.343623 0.037179 0.525032 0.521145
C14   C     C_R   0.407344 0.964466 0.407890 0.521703
C15   C     C_R   0.383752 0.074549 0.468638 -0.334187
C16   C     C_R   0.376837 0.926843 0.467635 -0.328095
C17   C     C_R   0.549201 0.553035 0.730647 0.609745
C18   C     C_R   0.408707 0.491672 0.264310 0.625793
C19   C     C_R   0.543659 0.555060 0.805646 -0.390743
C20   C     C_R   0.408549 0.496822 0.188785 -0.366380
C21   C     C_R   0.498561 0.498281 0.840909 0.103243
C22   C     C_R   0.503066 0.502284 0.158670 0.098184
C23   C     C_R   0.298028 0.499316 0.485675 0.855548
C24   C     C_R   0.701986 0.500437 0.514367 0.880726
C25   C     C_R   0.456381 0.441433 0.797357 -0.235350
C26   C     C_R   0.596376 0.505586 0.207475 -0.235625
C27   C     C_R   0.455048 0.444397 0.721636 -0.122358
C28   C     C_R   0.592877 0.506379 0.282794 -0.105951
C29   C     C_R   0.417430 0.466097 0.956645 0.506363
C30   C     C_R   0.578494 0.539918 0.042391 0.505221
C31   C     C_R   0.424245 0.464412 0.032841 -0.338815
C32   C     C_R   0.579292 0.533921 0.967050 -0.340994
C33   C     C_R   0.502942 0.502075 0.077268 -0.045982
C34   C     C_R   0.498304 0.498630 0.922314 -0.045488
C35   C     C_R   0.814249 0.499989 0.523186 -0.061095
C36   C     C_R   0.185789 0.499377 0.477002 -0.058398
C37   C     C_R   0.020676 0.524210 0.405534 -0.230116
C38   C     C_R   0.979285 0.474836 0.594725 -0.218089
C39   C     C_R   0.128497 0.519081 0.410655 -0.203953
C40   C     C_R   0.871431 0.480195 0.589557 -0.223603
C41   C     C_R   0.135975 0.482982 0.537659 -0.292742
C42   C     C_R   0.864175 0.516057 0.462570 -0.280387
C43   C     C_R   0.029005 0.488934 0.533385 0.188451
C44   C     C_R   0.971051 0.509918 0.466858 0.191058
C45   C     C_R   0.416102 0.735368 0.426733 -0.285437
C46   C     C_R   0.377397 0.267738 0.514568 -0.308825
C47   C     C_R   0.381733 0.804665 0.419144 -0.101331
C48   C     C_R   0.346312 0.197627 0.503696 -0.089687
H1    H     H_    0.819875 0.532494 0.411527 0.150049
H2    H     H_    0.180501 0.466729 0.588746 0.159864
H3    H     H_    0.575190 0.601000 0.835599 0.150554
H4    H     H_    0.334022 0.495183 0.154309 0.150618
H5    H     H_    0.425401 0.394432 0.821033 0.203802
H6    H     H_    0.672145 0.506697 0.188220 0.197229
H7    H     H_    0.419873 0.401328 0.688643 0.162856
H8    H     H_    0.665513 0.510748 0.318752 0.158731
H9    H     H_    0.365272 0.434157 0.056804 0.173664
H10   H     H_    0.643419 0.559010 0.943744 0.174015
H11   H     H_    0.832838 0.466930 0.636472 0.149240
H12   H     H_    0.166952 0.532246 0.363644 0.203737
H13   H     H_    0.976468 0.540142 0.354307 0.144551
H14   H     H_    0.023384 0.458806 0.645954 0.138711
H15   H     H_    0.400067 0.700863 0.380227 0.187641
H16   H     H_    0.322956 0.305095 0.532453 0.157197
H17   H     H_    0.340111 0.821940 0.367589 0.181565
H18   H     H_    0.268304 0.181475 0.513585 0.179869
H19   H     H_    0.472759 0.862994 0.588936 0.187844
H20   H     H_    0.569109 0.134919 0.446037 0.189441
N1    N     N_R   0.500010 0.499980 0.689440 -0.132411
N2    N     N_R   0.499990 0.500020 0.310560 -0.131310
O1    O     O_R   0.500000 0.398180 0.560840 -0.633933
O2    O     O_R   0.500000 0.601820 0.439160 -0.623399
O3    O     O_R   0.499960 0.398180 0.439210 -0.601914
O4    O     O_R   0.500040 0.601820 0.560790 -0.548068
O5    O     O_R   0.346380 0.499990 0.550760 -0.633625
O6    O     O_R   0.653620 0.500010 0.449240 -0.628042
O7    O     O_R   0.346330 0.499980 0.429130 -0.591486
O8    O     O_R   0.653670 0.500020 0.570870 -0.636029
Zn1   Zn    Zn3+2 0.500030 0.500000 0.581210 0.957370
Zn2   Zn    Zn3+2 0.499970 0.500000 0.418790 0.967758
O9    O     O_3   0.602384 0.605962 0.698369 -0.619537
C49   C     C_3   0.710077 0.589276 0.703354 0.159129
H21   H     H_    0.736694 0.603930 0.650509 0.185900
H22   H     H_    0.726938 0.531705 0.712607 0.103596
C50   C     C_3   0.774398 0.632953 0.762685 -0.412017
H23   H     H_    0.757200 0.690128 0.753502 0.239661
H24   H     H_    0.753271 0.617178 0.816777 0.211536
C51   C     C_3   0.891604 0.621607 0.762436 -0.943919
H25   H     H_    0.910393 0.564559 0.770325 0.259180
H26   H     H_    0.936465 0.652063 0.807273 0.272235
H27   H     H_    0.915975 0.640115 0.710043 0.268526
O10   O     O_3   0.315315 0.478039 0.290977 -0.657872
C52   C     C_3   0.302919 0.403895 0.300680 0.116697
H28   H     H_    0.264112 0.395263 0.350210 0.172146
H29   H     H_    0.378502 0.374582 0.310164 0.139529
C53   C     C_3   0.232054 0.372217 0.236046 -0.397255
H30   H     H_    0.157230 0.401775 0.227076 0.238118
H31   H     H_    0.271097 0.376940 0.186209 0.216654
C54   C     C_3   0.208250 0.294102 0.249380 -0.954916
H32   H     H_    0.282057 0.263522 0.257539 0.259590
H33   H     H_    0.157260 0.272480 0.201605 0.274493
H34   H     H_    0.167019 0.287692 0.298117 0.263968
O11   O     O_3   0.331874 0.433445 0.917148 -0.659060
C55   C     C_3   0.257088 0.484937 0.890419 0.080688
H35   H     H_    0.211915 0.463455 0.840118 0.169549
H36   H     H_    0.293051 0.535919 0.874379 0.125891
C56   C     C_3   0.181076 0.498364 0.945851 -0.362424
H37   H     H_    0.148938 0.446978 0.963396 0.237886
H38   H     H_    0.223395 0.524925 0.994382 0.211745
C57   C     C_3   0.090618 0.545166 0.913578 -0.951003
H39   H     H_    0.120846 0.596913 0.895551 0.264545
H40   H     H_    0.037935 0.554920 0.955241 0.272352
H41   H     H_    0.044692 0.518487 0.866537 0.262667
O12   O     O_3   0.654017 0.582484 0.080882 -0.662409
C58   C     C_3   0.610886 0.649435 0.092625 0.090483
H42   H     H_    0.656358 0.671962 0.142286 0.174441
H43   H     H_    0.527667 0.646099 0.103634 0.131253
C59   C     C_3   0.621093 0.699974 0.028515 -0.386254
H44   H     H_    0.704101 0.702204 0.017812 0.236785
H45   H     H_    0.571966 0.680363 0.978919 0.214123
C60   C     C_3   0.585786 0.774498 0.044102 -0.922600
H46   H     H_    0.502456 0.773541 0.054013 0.266540
H47   H     H_    0.593441 0.809556 0.996582 0.265366
H48   H     H_    0.635207 0.796512 0.092417 0.271266
O13   O     O_3   0.525447 0.732061 0.621705 -0.607706
C61   C     C_3   0.449728 0.731322 0.671033 0.154333
H49   H     H_    0.419285 0.676261 0.675160 0.172735
H50   H     H_    0.380590 0.765876 0.654693 0.101721
C62   C     C_3   0.501525 0.755393 0.745800 -0.313167
H51   H     H_    0.573187 0.724194 0.762732 0.246704
H52   H     H_    0.524985 0.812096 0.742533 0.219748
C63   C     C_3   0.427454 0.746322 0.803269 -0.985476
H53   H     H_    0.355977 0.778495 0.788621 0.274846
H54   H     H_    0.467487 0.764221 0.856728 0.271648
H55   H     H_    0.404481 0.689715 0.808266 0.261975
O14   O     O_3   0.638947 0.265954 0.452091 -0.638570
C64   C     C_3   0.717258 0.263803 0.512802 0.057008
H56   H     H_    0.731203 0.207996 0.531488 0.147891
H57   H     H_    0.694573 0.295762 0.558421 0.130717
C65   C     C_3   0.818867 0.294936 0.490754 -0.295462
H58   H     H_    0.842025 0.264395 0.444593 0.229962
H59   H     H_    0.805777 0.350784 0.472594 0.231752
C66   C     C_3   0.907712 0.292746 0.553759 -0.953465
H60   H     H_    0.886031 0.322418 0.600879 0.267553
H61   H     H_    0.979368 0.317459 0.536451 0.270219
H62   H     H_    0.925179 0.237053 0.570601 0.265826
O15   O     O_3   0.298924 0.928471 0.580927 -0.597236
C67   C     C_3   0.200490 0.896042 0.558213 0.086623
H63   H     H_    0.191411 0.850640 0.595584 0.156523
H64   H     H_    0.194069 0.873526 0.502429 0.119618
C68   C     C_3   0.111584 0.948284 0.563430 -0.314790
H65   H     H_    0.118147 0.969413 0.619552 0.254059
H66   H     H_    0.118113 0.993382 0.525215 0.216679
C69   C     C_3   0.004483 0.912679 0.544777 -0.959516
H67   H     H_    0.995674 0.892135 0.488398 0.266987
H68   H     H_    0.941881 0.951841 0.548884 0.274588
H69   H     H_    0.995011 0.868227 0.583200 0.266941
O16   O     O_3   0.440263 0.073226 0.347833 -0.585944
C70   C     C_3   0.356230 0.109467 0.307085 0.102015
H70   H     H_    0.390689 0.153092 0.276895 0.167883
H71   H     H_    0.302613 0.134886 0.341541 0.119330
C71   C     C_3   0.294236 0.059822 0.251989 -0.319568
H72   H     H_    0.348489 0.035503 0.217575 0.257162
H73   H     H_    0.256835 0.016746 0.281213 0.213524
C72   C     C_3   0.209142 0.099693 0.203381 -0.971600
H74   H     H_    0.153413 0.123882 0.236712 0.269421
H75   H     H_    0.165142 0.062324 0.164520 0.275415
H76   H     H_    0.244724 0.141945 0.172020 0.272002
F1    F     F_    0.320608 0.071096 0.585110 -0.640846
F2    F     F_    0.447245 0.930492 0.353600 -0.639649

loop_
_geom_bond_atom_site_label_1
_geom_bond_atom_site_label_2
_ccdc_geom_bond_type
C18   N2    A    
C66   H62   S    
C38   C40   A    
C17   N1    A    
C61   H49   S    
C8    O14   S    
C56   H38   S    
O15   C67   S    
C67   C68   S    
C32   H10   S    
C5    H19   S    
C59   H45   S    
C55   H36   S    
O12   C58   S    
C28   H8    S    
C50   H23   S    
C9    C45   A    
C64   H57   S    
C72   H74   S    
C36   C39   A    
C19   C21   A    
C25   H5    S    
C62   H51   S    
C4    C48   A    
C27   H7    S    
O7    Zn2   S    
C66   H60   S    
C53   C54   S    
C29   O11   S    
C18   C20   A    
C66   H61   S    
C68   C69   S    
C3    C47   A    
C35   C42   A    
C48   H18   S    
C57   H39   S    
C60   H48   S    
C59   H44   S    
C70   H70   S    
C63   H53   S    
C58   H43   S    
C53   H31   S    
C10   C46   A    
C68   H65   S    
C65   C66   S    
C69   H68   S    
C27   N1    A    
C14   F2    S    
C62   C63   S    
C6    H20   S    
C52   H29   S    
C40   H11   S    
C41   C43   A    
C36   C41   A    
C42   C44   A    
C2    O2    A    
C26   H6    S    
O1    Zn1   S    
C55   H35   S    
O9    C49   S    
C71   H73   S    
C45   C47   A    
C37   C39   A    
C64   C65   S    
C46   C48   A    
C24   C35   S    
C50   H24   S    
N2    Zn2   S    
C65   H58   S    
C69   H69   S    
C4    C6    A    
C23   O5    A    
C5    C7    A    
O8    Zn1   S    
C24   O6    A    
C6    C8    A    
C21   C34   S    
C61   C62   S    
C38   H14   S    
C29   C34   A    
C45   H15   S    
C23   O7    A    
O2    Zn2   S    
C46   H16   S    
C59   C60   S    
C32   C34   A    
C43   C44   A    
C71   C72   S    
C11   C16   A    
C54   H32   S    
C51   H27   S    
C56   H37   S    
C58   C59   S    
C53   H30   S    
C31   C33   A    
C60   H46   S    
C70   C71   S    
C52   H28   S    
C1    O1    A    
C7    O13   S    
C57   H41   S    
C69   H67   S    
C63   H54   S    
C72   H76   S    
C54   H33   S    
C51   H26   S    
C23   C36   S    
C52   C53   S    
C49   H22   S    
O4    Zn1   S    
C13   C15   A    
O16   C70   S    
C56   C57   S    
C14   C16   A    
N1    Zn1   S    
C20   C22   A    
C41   H2    S    
C71   H72   S    
C30   O12   S    
C50   C51   S    
C24   O8    A    
C7    C9    A    
C22   C33   S    
C21   C25   A    
C61   H50   S    
C30   C33   A    
C8    C10   A    
C28   N2    A    
C1    C10   S    
O6    Zn2   S    
C67   H64   S    
O14   C64   S    
C3    C5    A    
C2    O4    A    
C37   H13   S    
C65   H59   S    
C25   C27   A    
C49   C50   S    
C64   H56   S    
C26   C28   A    
C20   H4    S    
C1    O3    A    
C31   H9    S    
C37   C44   A    
C12   C15   A    
C12   C14   A    
C18   O10   S    
C38   C43   A    
C29   C31   A    
C30   C32   A    
C11   C13   A    
C11   O15   S    
O13   C61   S    
C4    C15   S    
C63   H55   S    
C39   H12   S    
C13   F1    S    
O10   C52   S    
C17   C19   A    
O3    Zn2   S    
C35   C40   A    
C17   O9    S    
C67   H63   S    
C68   H66   S    
C57   H40   S    
C60   H47   S    
C42   H1    S    
C19   H3    S    
C54   H34   S    
C51   H25   S    
C72   H75   S    
C49   H21   S    
C22   C26   A    
O11   C55   S    
C12   O16   S    
C70   H71   S    
C2    C9    S    
O5    Zn1   S    
C47   H17   S    
C55   C56   S    
C3    C16   S    
C58   H42   S    
C62   H52   S    
