data_mof_unit_pretest_1079.cif
_audit_creation_date              2013-03-05T16:00:37-0500
_audit_creation_method            fapswitch 2.2
_symmetry_space_group_name_H-M    P1
_symmetry_Int_Tables_number       1
_space_group_crystal_system       triclinic
_cell_length_a                    10.745329
_cell_length_b                    14.719161
_cell_length_c                    14.802107
_cell_angle_alpha                 64.812152
_cell_angle_beta                  103.723268
_cell_angle_gamma                 103.539929
_cell_volume                      2034.30703134

loop_
_atom_site_label
_atom_site_type_symbol
_atom_site_description
_atom_site_fract_x
_atom_site_fract_y
_atom_site_fract_z
_atom_type_partial_charge
O1    O     O_R   0.455060 0.022100 0.338110 -0.618533
O2    O     O_R   0.512640 0.160150 0.379180 -0.521091
C1    C     C_R   0.478220 0.120380 0.312243 0.821908
O3    O     O_R   0.288900 0.930980 0.479450 -0.585008
O4    O     O_R   0.346480 0.069030 0.520520 -0.601114
C2    C     C_R   0.259866 0.000153 0.499432 0.765411
Cu1   Cu    Cu3+1 0.465900 0.918260 0.475680 0.931640
Cu2   Cu    Cu3+1 0.534100 0.081740 0.524320 0.996043
O5    O     O_R   0.487360 0.839850 0.620820 -0.587262
O6    O     O_R   0.544940 0.977900 0.661890 -0.597340
O7    O     O_R   0.653520 0.930970 0.479480 -0.597549
O8    O     O_R   0.711100 0.069020 0.520550 -0.537910
C3    C     C_R   0.519644 0.880048 0.687584 0.788693
C4    C     C_R   0.740064 0.000833 0.498777 0.768158
C5    C     C_3   0.033000 0.916465 0.465314 -0.357072
H1    H     H_    0.057864 0.840339 0.519046 0.194664
H2    H     H_    0.047489 0.927821 0.388992 0.207484
C6    C     C_3   0.890266 0.918890 0.462557 -0.448967
H3    H     H_    0.837314 0.934600 0.384289 0.181402
H4    H     H_    0.846093 0.842523 0.512183 0.191453
H5    H     H_    0.134293 0.909253 0.661479 0.149554
H6    H     H_    0.917110 0.897320 0.656425 0.148581
C7    C     C_3   0.100351 0.981426 0.605211 -0.352379
C8    C     C_3   0.082556 0.104586 0.422351 -0.427324
C9    C     C_3   0.121814 0.000498 0.498174 0.088736
H7    H     H_    0.148170 0.167024 0.441070 0.204215
H8    H     H_    0.094726 0.117715 0.344875 0.130163
C10   C     C_3   0.878344 0.001675 0.498009 0.035305
C11   C     C_3   0.955497 0.975558 0.606543 -0.356210
C12   C     C_3   0.939482 0.106895 0.423288 0.220782
H9    H     H_    0.885066 0.118765 0.345918 0.088541
H10   H     H_    0.157866 0.043741 0.628159 0.202999
H11   H     H_    0.943451 0.026679 0.640453 0.208076
C13   C     C_R   0.450526 0.189154 0.205280 -0.152569
C14   C     C_R   0.520034 0.811986 0.794499 -0.061035
C15   C     C_R   0.338050 0.214435 0.035590 -0.130471
C16   C     C_R   0.372786 0.150100 0.135517 -0.278786
C17   C     C_R   0.492638 0.295022 0.173511 0.265225
C18   C     C_R   0.438393 0.361087 0.077381 -0.084715
C19   C     C_R   0.370999 0.320154 0.005142 0.084670
C20   C     C_R   0.454715 0.467401 0.050093 0.073842
C21   C     C_R   0.437067 0.533077 0.946823 0.024487
C22   C     C_R   0.377155 0.490555 0.874748 -0.315917
C23   C     C_R   0.339281 0.385235 0.903716 0.408775
C24   C     C_R   0.478982 0.509233 0.123555 -0.116575
C25   C     C_R   0.505285 0.613511 0.097013 -0.223110
C26   C     C_R   0.508652 0.679059 0.996261 0.153562
C27   C     C_R   0.475359 0.639435 0.920006 0.112318
C28   C     C_R   0.543723 0.783963 0.970736 -0.184431
C29   C     C_R   0.548671 0.850134 0.870351 -0.192620
C30   C     C_R   0.485258 0.707239 0.819949 -0.245117
H12   H     H_    0.469612 0.679526 0.760856 0.157429
H13   H     H_    0.574980 0.930926 0.852203 0.157460
H14   H     H_    0.524704 0.642781 0.155740 0.153802
H15   H     H_    0.282974 0.181015 0.982843 0.196681
H16   H     H_    0.340171 0.069274 0.157743 0.180338
H17   H     H_    0.351357 0.538051 0.796221 0.138305
H18   H     H_    0.471166 0.461886 0.201642 0.178741
H19   H     H_    0.567500 0.814772 0.028522 0.140126
N1    N     N_R   0.585360 0.204570 0.560800 -0.181257
N2    N     N_R   0.414550 0.795430 0.439160 -0.224544
C31   C     C_R   0.734174 0.293743 0.653993 -0.277967
C32   C     C_R   0.692734 0.208537 0.630004 0.135405
C33   C     C_R   0.514904 0.282525 0.513843 0.089553
C34   C     C_R   0.551785 0.371689 0.535025 -0.014456
C35   C     C_R   0.664414 0.375776 0.606546 0.151997
C36   C     C_R   0.481559 0.456074 0.488134 0.078098
C37   C     C_R   0.525910 0.543941 0.513160 0.097433
C38   C     C_R   0.639399 0.544048 0.584404 -0.223456
C39   C     C_R   0.706764 0.461487 0.630132 -0.171174
C40   C     C_R   0.367778 0.454963 0.417555 -0.199062
C41   C     C_R   0.298302 0.535248 0.374036 -0.155707
C42   C     C_R   0.339381 0.620351 0.398053 0.056993
C43   C     C_R   0.454029 0.627923 0.466510 -0.021514
C44   C     C_R   0.264331 0.697773 0.353792 -0.266137
C45   C     C_R   0.301943 0.784562 0.374176 0.585785
C46   C     C_R   0.489321 0.719105 0.485159 -0.068221
H20   H     H_    0.793224 0.464799 0.684771 0.146923
H21   H     H_    0.574832 0.730516 0.536663 0.142332
H22   H     H_    0.210551 0.530374 0.320927 0.162881
H23   H     H_    0.820584 0.295656 0.709010 0.151194
H24   H     H_    0.747142 0.145567 0.666037 0.128687
H25   H     H_    0.431925 0.273027 0.459712 0.118251
H26   H     H_    0.678418 0.606981 0.606988 0.129470
H27   H     H_    0.328125 0.392519 0.394505 0.135762
H28   H     H_    0.175200 0.691327 0.302423 0.171270
N3    N     N_R   0.930255 0.192621 0.446413 0.136416
O9    O     O_R   0.863492 0.262900 0.380775 -0.268918
O10   O     O_R   0.997373 0.204753 0.527209 -0.383044
O11   O     O_3   0.274606 0.344415 0.833623 -0.739670
H29   H     H_    0.260831 0.400021 0.765973 0.331304
N4    N     N_R   0.611724 0.332542 0.224456 0.136948
O12   O     O_R   0.712159 0.371504 0.178018 -0.318814
O13   O     O_R   0.615151 0.343967 0.307512 -0.340710
O14   O     O_3   0.218532 0.855093 0.328637 -0.767299
H30   H     H_    0.266847 0.921816 0.322909 0.358784

loop_
_geom_bond_atom_site_label_1
_geom_bond_atom_site_label_2
_geom_bond_distance
_ccdc_geom_bond_type
C5    C6    1.532945 S    
N3    O9    1.300006 A    
H6    C11   1.113478 S    
C17   N4    1.441120 S    
C39   H20   1.084186 S    
C13   C16   1.402039 A    
C42   C43   1.412946 A    
O14   H30   0.975960 S    
C8    H8    1.113690 S    
C22   C23   1.405081 A    
Cu1   Cu2   2.691508 S    
C18   C20   1.417662 A    
C24   C25   1.387931 A    
Cu1   O7    1.970057 S    
N1    C32   1.357393 A    
O4    C2    1.296589 A    
C7    C11   1.542955 S    
C10   C11   1.551671 S    
C8    H7    1.113159 S    
C3    C14   1.468842 S    
C45   O14   1.374361 S    
C12   H9    1.115256 S    
O7    C4    1.296164 A    
C5    C9    1.554472 S    
C2    C9    1.480281 S    
C37   C43   1.438377 A    
C5    H1    1.113693 S    
C11   H11   1.110305 S    
C5    H2    1.113102 S    
C6    H3    1.113662 S    
C20   C21   1.413374 A    
O5    C3    1.298468 A    
Cu1   N2    2.022033 S    
C40   H27   1.075780 S    
C16   H16   1.082942 S    
C27   C30   1.402775 A    
N2    C46   1.372305 A    
C37   C38   1.410517 A    
C34   C36   1.431961 A    
C43   C46   1.431316 A    
C36   C40   1.409134 A    
O1    Cu1   1.953954 S    
C42   C44   1.386492 A    
O3    Cu1   1.970145 S    
C46   H21   1.076135 S    
N2    C45   1.379503 A    
C17   C18   1.415697 A    
C24   H18   1.077833 S    
C29   H13   1.083025 S    
C31   C35   1.401897 A    
C32   H24   1.081823 S    
C36   C37   1.439596 A    
C15   C19   1.403816 A    
C6    C10   1.557526 S    
C8    C9    1.548962 S    
C26   C28   1.402685 A    
C18   C19   1.416843 A    
C1    C13   1.474236 S    
C30   H12   1.077765 S    
O1    C1    1.306282 A    
C44   C45   1.383758 A    
C33   H25   1.074514 S    
C31   C32   1.392781 A    
C44   H28   1.085248 S    
C26   C27   1.418879 A    
Cu2   O8    1.970146 S    
C25   H14   1.084185 S    
C14   C29   1.400846 A    
N4    O13   1.301023 A    
C21   C27   1.422890 A    
O3    C2    1.292413 A    
C31   H23   1.083792 S    
O8    C4    1.295078 A    
C34   C35   1.414669 A    
H5    C7    1.113299 S    
C14   C30   1.400470 A    
C21   C22   1.413583 A    
C23   O11   1.383259 S    
Cu1   O5    1.944168 S    
C25   C26   1.393127 A    
C15   C16   1.391119 A    
C13   C17   1.414644 A    
O2    Cu2   1.944168 S    
C41   C42   1.391417 A    
O6    C3    1.300944 A    
O4    Cu2   1.970057 S    
C28   H19   1.083875 S    
N1    C33   1.360555 A    
C7    H10   1.113009 S    
C10   C12   1.569651 S    
O2    C1    1.295988 A    
C40   C41   1.380487 A    
C41   H22   1.084830 S    
C15   H15   1.083121 S    
Cu2   N1    2.021689 S    
O11   H29   0.991633 S    
C35   C39   1.396891 A    
C33   C34   1.423222 A    
N4    O12   1.301032 A    
C6    H4    1.114081 S    
C7    C9    1.551349 S    
C38   C39   1.392190 A    
C8    C12   1.549154 S    
C22   H17   1.078356 S    
C19   C23   1.404896 A    
Cu2   O6    1.953954 S    
C28   C29   1.393123 A    
C38   H26   1.077413 S    
N3    O10   1.301755 A    
C20   C24   1.410591 A    
C4    C10   1.485715 S    
C12   N3    1.470197 S    
