data_mof_unit_pretest_1153.cif
_audit_creation_date              2012-12-10T19:48:42-0500
_audit_creation_method            fapswitch 2.2
_symmetry_space_group_name_H-M    P1
_symmetry_Int_Tables_number       1
_space_group_crystal_system       triclinic
_cell_length_a                    13.064029
_cell_length_b                    14.231183
_cell_length_c                    14.979934
_cell_angle_alpha                 90.081211
_cell_angle_beta                  90.308713
_cell_angle_gamma                 69.07702
_cell_volume                      2601.339641

loop_
_atom_site_label
_atom_site_type_symbol
_atom_type_description
_atom_site_fract_x
_atom_site_fract_y
_atom_site_fract_z
_atom_type_partial_charge
C1    C     C_R   0.501250 0.499649 0.672180 0.864882
C2    C     C_R   0.824346 0.404351 0.499183 -0.102400
C3    C     C_R   0.481389 0.427602 0.907646 -0.176261
C4    C     C_R   0.704857 0.443496 0.498465 0.866864
C5    C     C_R   0.473307 0.430415 0.815722 -0.206971
C6    C     C_R   0.508986 0.497158 0.767947 -0.026326
C7    C     C_R   0.555048 0.559537 0.811879 -0.192347
C8    C     C_R   0.564595 0.555689 0.903791 -0.185863
C9    C     C_R   0.526647 0.490516 0.951807 0.116255
C10   C     C_R   0.491006 0.585081 0.092644 -0.172598
C11   C     C_R   0.482735 0.587445 0.184486 -0.211429
C12   C     C_R   0.991294 0.442568 0.488921 0.033897
C13   C     C_R   0.509763 0.497181 0.232023 -0.029574
C14   C     C_R   0.548079 0.404477 0.187848 -0.197269
C15   C     C_R   0.557685 0.402113 0.096061 -0.186143
C16   C     C_R   0.501411 0.499561 0.327780 0.852153
C17   C     C_R   0.527540 0.492428 0.048282 0.118834
C18   C     C_R   0.607762 0.856469 0.496873 -0.303351
C19   C     C_R   0.599581 0.760130 0.499327 -0.026700
C20   C     C_R   0.406529 0.833629 0.498973 0.254506
C21   C     C_R   0.413693 0.929575 0.510454 -0.298059
C22   C     C_R   0.513497 0.943382 0.503549 0.125861
C23   C     C_R   0.882893 0.459644 0.460532 0.024026
C24   C     C_R   0.456057 0.117896 0.430965 0.003362
C25   C     C_R   0.449317 0.219271 0.434444 -0.046036
C26   C     C_R   0.560686 0.187865 0.563453 -0.056096
C27   C     C_R   0.568388 0.086268 0.566338 -0.001976
C28   C     C_R   0.294780 0.556031 0.500225 0.866105
C29   C     C_R   0.515189 0.049157 0.499118 0.063431
C30   C     C_R   0.029115 0.666128 0.380850 -0.208648
C31   C     C_R   0.176995 0.589554 0.484355 -0.064411
C32   C     C_R   0.878971 0.317880 0.548356 -0.234267
C33   C     C_R   0.990485 0.288627 0.562643 -0.176771
C34   C     C_R   0.033321 0.519842 0.469062 0.058584
C35   C     C_R   0.048809 0.349572 0.535448 0.122581
C36   C     C_3   0.297675 0.835052 0.463747 -0.406307
C37   C     C_3   0.306290 0.812221 0.362669 -0.305317
C38   C     C_3   0.202859 0.875309 0.311740 -0.958521
C39   C     C_3   0.826294 0.675998 0.290863 -0.435810
C40   C     C_3   0.718615 0.672655 0.251320 -0.329630
C41   C     C_3   0.675078 0.750935 0.177676 -0.905625
C42   C     C_3   0.401306 0.086911 0.352286 -0.428347
C43   C     C_3   0.485596 0.018909 0.287094 -0.319862
C44   C     C_3   0.429395 0.999105 0.203239 -0.909761
C45   C     C_R   0.980630 0.595305 0.403804 0.124676
C46   C     C_3   0.629847 0.022034 0.643897 -0.420530
C47   C     C_3   0.551026 0.008408 0.713962 -0.324974
C48   C     C_3   0.613219 0.936890 0.787959 -0.887971
C49   C     C_3   0.171611 0.303331 0.550673 -0.439244
C50   C     C_3   0.198228 0.300829 0.651248 -0.352575
C51   C     C_3   0.320790 0.266132 0.668219 -0.885378
C52   C     C_R   0.881555 0.598385 0.363191 0.058436
C53   C     C_R   0.833673 0.531171 0.393804 -0.230856
C54   C     C_R   0.122598 0.528388 0.515672 -0.252319
C55   C     C_R   0.128384 0.660431 0.418601 -0.215508
H1    H     H_    0.169846 0.707153 0.392645 0.162976
H2    H     H_    0.674843 0.696127 0.497084 0.163468
H3    H     H_    0.404959 0.272056 0.383369 0.134779
H4    H     H_    0.601550 0.216592 0.613779 0.138410
H5    H     H_    0.994452 0.723255 0.330580 0.132740
H6    H     H_    0.155171 0.484734 0.574427 0.156254
H7    H     H_    0.835151 0.273207 0.576622 0.156268
H8    H     H_    0.031487 0.218129 0.597071 0.136367
H9    H     H_    0.757389 0.532653 0.364817 0.156317
H10   H     H_    0.449877 0.378261 0.944279 0.130157
H11   H     H_    0.128523 0.868267 0.341842 0.265008
H12   H     H_    0.437474 0.382008 0.782219 0.150296
H13   H     H_    0.194432 0.955800 0.312828 0.266769
H14   H     H_    0.208861 0.849922 0.241195 0.255326
H15   H     H_    0.376101 0.828483 0.332944 0.220494
H16   H     H_    0.322667 0.731307 0.351327 0.235085
H17   H     H_    0.265122 0.786778 0.502651 0.206517
H18   H     H_    0.234096 0.910888 0.474101 0.179146
H19   H     H_    0.664655 0.826948 0.203439 0.262908
H20   H     H_    0.732788 0.733157 0.120593 0.262335
H21   H     H_    0.594487 0.750972 0.153708 0.251444
H22   H     H_    0.732379 0.597232 0.222200 0.229762
H23   H     H_    0.584612 0.610259 0.775227 0.154794
H24   H     H_    0.655543 0.688643 0.304454 0.231875
H25   H     H_    0.808421 0.752273 0.319622 0.196116
H26   H     H_    0.885322 0.665381 0.235174 0.207118
H27   H     H_    0.339776 0.995640 0.515846 0.123797
H28   H     H_    0.373106 0.959196 0.220651 0.269395
H29   H     H_    0.382120 0.071057 0.169365 0.262711
H30   H     H_    0.491694 0.951935 0.155941 0.250498
H31   H     H_    0.544176 0.055695 0.267332 0.218452
H32   H     H_    0.532415 0.945824 0.319295 0.232185
H33   H     H_    0.344657 0.049687 0.374595 0.208103
H34   H     H_    0.600813 0.603789 0.937421 0.131542
H35   H     H_    0.348906 0.154911 0.315206 0.193464
H36   H     H_    0.659192 0.861281 0.759951 0.263534
H37   H     H_    0.671405 0.966431 0.821732 0.259100
H38   H     H_    0.554318 0.929444 0.838138 0.247310
H39   H     H_    0.503660 0.082537 0.744065 0.217339
H40   H     H_    0.492220 0.977803 0.682861 0.233338
H41   H     H_    0.686155 0.948206 0.619802 0.208996
H42   H     H_    0.683052 0.057878 0.676977 0.187690
H43   H     H_    0.361239 0.190454 0.638781 0.267043
H44   H     H_    0.354364 0.320369 0.638643 0.295008
H45   H     H_    0.465942 0.655459 0.056210 0.129084
H46   H     H_    0.337151 0.261591 0.741184 0.231920
H47   H     H_    0.158212 0.376016 0.682052 0.218213
H48   H     H_    0.166496 0.247913 0.685878 0.216504
H49   H     H_    0.201026 0.224572 0.525443 0.190159
H50   H     H_    0.218296 0.339411 0.510675 0.223059
H51   H     H_    0.453483 0.659638 0.217971 0.148543
H52   H     H_    0.571191 0.334079 0.224130 0.153236
H53   H     H_    0.587443 0.330091 0.062279 0.129815
H54   H     H_    0.687526 0.862522 0.489357 0.138130
N1    N     N_R   0.500000 0.747530 0.500020 -0.096799
N2    N     N_R   0.499940 0.252470 0.500020 -0.107792
O1    O     O_R   0.499990 0.420530 0.630930 -0.634529
O2    O     O_R   0.499990 0.579480 0.630940 -0.609022
O3    O     O_R   0.653620 0.381060 0.499970 -0.607743
O4    O     O_R   0.653620 0.540010 0.499980 -0.627069
O5    O     O_R   0.500010 0.420520 0.369060 -0.615879
O6    O     O_R   0.500010 0.579470 0.369070 -0.640212
O7    O     O_R   0.346380 0.459990 0.500020 -0.609734
O8    O     O_R   0.346380 0.618940 0.500030 -0.627526
Zn1   Zn    Zn3+2 0.500000 0.393860 0.499990 0.922303
Zn2   Zn    Zn3+2 0.500000 0.606140 0.500010 0.920688

loop_
_geom_bond_atom_site_label_1
_geom_bond_atom_site_label_2
_ccdc_geom_bond_type
C55   H1    S    
O4    Zn2   S    
C22   C29   S    
C27   C29   A    
C24   C42   S    
C4    O4    A    
C18   H54   S    
C5    H12   S    
C44   H28   S    
C49   H49   S    
C7    C8    A    
C19   H2    S    
C12   C23   A    
C26   C27   A    
C4    O3    A    
C36   C37   S    
C1    O1    A    
C5    C6    A    
C53   H9    S    
C10   C17   A    
C2    C32   A    
C18   C19   A    
O6    Zn2   S    
C24   C29   A    
C30   C45   A    
C41   H19   S    
C38   H11   S    
C8    C9    A    
C48   H36   S    
C30   H5    S    
C35   C49   S    
C13   C14   A    
C26   H4    S    
C51   H43   S    
C39   C52   S    
C38   H14   S    
C50   H48   S    
C21   C22   A    
C3    H10   S    
C1    O2    A    
C16   O5    A    
C23   C53   A    
O8    Zn2   S    
C51   H44   S    
C48   H38   S    
C1    C6    S    
C24   C25   A    
C39   H26   S    
C36   H18   S    
C39   C40   S    
O1    Zn1   S    
C49   H50   S    
C45   C52   A    
C3    C5    A    
O5    Zn1   S    
N2    Zn1   S    
C42   H35   S    
C15   H53   S    
C2    C4    S    
C43   C44   S    
C37   C38   S    
C3    C9    A    
C41   H20   S    
C47   C48   S    
C14   C15   A    
C33   H8    S    
C11   H51   S    
C50   C51   S    
C40   H24   S    
O2    Zn2   S    
C34   C45   A    
C21   H27   S    
C12   C35   A    
C10   H45   S    
C7    H23   S    
C20   N1    A    
C27   C46   S    
C9    C17   S    
C14   H52   S    
C46   H42   S    
C38   H13   S    
C50   H47   S    
C37   H16   S    
C48   H37   S    
C42   H33   S    
C42   C43   S    
C12   C34   A    
C44   H30   S    
C52   C53   A    
C19   N1    A    
C15   C17   A    
C46   C47   S    
C40   C41   S    
C18   C22   A    
C43   H31   S    
C28   C31   S    
C44   H29   S    
C28   O8    A    
C34   C54   A    
C6    C7    A    
C54   H6    S    
C51   H46   S    
C30   C55   A    
C43   H32   S    
C39   H25   S    
C32   H7    S    
N1    Zn2   S    
C28   O7    A    
C16   O6    A    
C32   C33   A    
C41   H21   S    
C11   C13   A    
C33   C35   A    
C47   H39   S    
C31   C54   A    
O7    Zn1   S    
C10   C11   A    
C25   N2    A    
C20   C36   S    
C46   H41   S    
C20   C21   A    
C49   C50   S    
C25   H3    S    
C13   C16   S    
C2    C23   A    
C47   H40   S    
C40   H22   S    
C8    H34   S    
C31   C55   A    
C37   H15   S    
C26   N2    A    
O3    Zn1   S    
C36   H17   S    
