data_mof_unit_pretest_1635.cif
_audit_creation_date              2012-12-11T14:39:27-0500
_audit_creation_method            fapswitch 2.2
_symmetry_space_group_name_H-M    P1
_symmetry_Int_Tables_number       1
_space_group_crystal_system       triclinic
_cell_length_a                    8.303144
_cell_length_b                    15.077638
_cell_length_c                    17.289763
_cell_angle_alpha                 99.135434
_cell_angle_beta                  96.997634
_cell_angle_gamma                 99.722926
_cell_volume                      2081.66681395

loop_
_atom_site_label
_atom_site_type_symbol
_atom_type_description
_atom_site_fract_x
_atom_site_fract_y
_atom_site_fract_z
_atom_type_partial_charge
Ba1   Ba    Ba6+2 0.844730 0.540500 0.462170 1.627024
Ba2   Ba    Ba6+2 0.345110 0.459580 0.537840 1.650989
C1    C     C_3   0.537823 0.829067 0.189443 0.424795
C2    C     C_3   0.384033 0.496278 0.217760 -0.038203
C3    C     C_2   0.313141 0.494395 0.132022 0.383298
C4    C     C_3   0.064778 0.696487 0.245096 0.273345
C5    C     C_2   0.145756 0.479077 0.110310 -0.065609
C6    C     C_2   0.037771 0.459265 0.171800 -0.205730
C7    C     C_1   0.103918 0.464971 0.246818 0.074607
C8    C     C_R   0.887157 0.469970 0.862955 -0.120059
C9    C     C_R   0.823761 0.456198 0.782472 -0.008782
C10   C     C_R   0.083600 0.536897 0.755373 0.029714
C11   C     C_R   0.148432 0.551044 0.836601 -0.149087
C12   C     C_3   0.561274 0.762782 0.249971 0.337381
C13   C     C_R   0.052321 0.514760 0.890910 -0.001245
C14   C     C_2   0.066053 0.472852 0.026610 -0.086615
C15   C     C_2   0.125773 0.526110 0.976221 -0.071617
C16   C     C_3   0.985456 0.698911 0.161368 -0.398400
C17   C     C_R   0.924581 0.485199 0.728927 -0.255840
C18   C     C_R   0.767029 0.236061 0.530255 -0.268802
C19   C     C_R   0.865784 0.177332 0.556245 0.006194
C20   C     C_R   0.800443 0.083182 0.545772 -0.152709
C21   C     C_R   0.631973 0.047229 0.512399 0.004461
C22   C     C_R   0.538498 0.109046 0.484093 -0.115305
C23   C     C_3   0.397611 0.299616 0.294982 0.317759
C24   C     C_R   0.607188 0.201324 0.490608 0.047686
C25   C     C_R   0.397410 0.908946 0.459199 -0.136030
C26   C     C_R   0.334059 0.815106 0.445420 0.026312
C27   C     C_R   0.582970 0.789920 0.519068 0.065064
C28   C     C_3   0.162443 0.760358 0.691153 0.316693
C29   C     C_R   0.644821 0.884599 0.535436 -0.136786
C30   C     C_R   0.556593 0.946375 0.503334 0.008669
C31   C     C_R   0.427852 0.755615 0.473856 -0.253071
C32   C     C_3   0.139628 0.796254 0.776150 -0.384419
C33   C     C_3   0.912766 0.257912 0.363032 0.313515
C34   C     C_3   0.345998 0.259504 0.207185 -0.400680
C35   C     C_3   0.860597 0.154481 0.339089 -0.412220
C36   C     C_3   0.739651 0.660581 0.702625 0.470168
C37   C     C_3   0.734543 0.681341 0.792083 0.296207
C38   C     C_3   0.704655 0.804788 0.318318 -0.203706
C39   C     C_3   0.729091 0.908057 0.349294 -0.481462
C40   C     C_3   0.608556 0.807536 0.824391 0.319907
C41   C     C_3   0.549560 0.837562 0.903062 -0.198991
C42   C     C_3   0.545807 0.939923 0.917991 -0.538519
C43   C     C_3   0.356073 0.812845 0.153127 -0.171609
C44   C     C_3   0.324358 0.869829 0.089334 -0.406114
C45   C     C_3   0.118925 0.281803 0.751142 0.365798
C46   C     C_3   0.787750 0.874821 0.140443 0.257830
C47   C     C_3   0.776439 0.973517 0.131424 -0.230133
C48   C     C_3   0.946457 0.029421 0.128790 -0.492434
C49   C     C_3   0.722066 0.091923 0.724375 -0.266779
C50   C     C_3   0.769491 0.020555 0.770754 -0.415289
C51   C     C_3   0.421804 0.415999 0.031546 0.268199
C52   C     C_3   0.587569 0.388301 0.053318 -0.177364
C53   C     C_3   0.601225 0.299689 0.000166 -0.539535
C54   C     C_3   0.225912 0.839168 0.648962 -0.168769
C55   C     C_3   0.123629 0.914530 0.652844 -0.436216
C56   C     C_3   0.146905 0.261257 0.834531 -0.386049
C57   C     C_3   0.599713 0.233048 0.724044 0.330725
C58   C     C_3   0.642726 0.161875 0.772829 -0.225719
C59   C     C_2   0.257853 0.506277 0.272576 -0.332800
H1    H     H_    0.248581 0.847886 0.806599 0.110420
H2    H     H_    0.636638 0.604159 0.675637 0.087634
H3    H     H_    0.562305 0.901326 0.219421 -0.034830
H4    H     H_    0.848405 0.727445 0.825380 -0.049822
H5    H     H_    0.734728 0.617103 0.815060 0.015593
H6    H     H_    0.447639 0.748496 0.277303 -0.096724
H7    H     H_    0.285905 0.314964 0.319659 0.029462
H8    H     H_    0.490554 0.363754 0.301691 0.037990
H9    H     H_    0.257827 0.193456 0.199520 0.128827
H10   H     H_    0.284310 0.306958 0.176750 0.046181
H11   H     H_    0.456196 0.247641 0.179482 0.117417
H12   H     H_    0.029965 0.829293 0.776118 0.092709
H13   H     H_    0.006535 0.640062 0.119220 0.094444
H14   H     H_    0.211699 0.343044 0.748205 0.101053
H15   H     H_    0.992826 0.297021 0.740073 -0.065892
H16   H     H_    0.273698 0.247820 0.848411 0.144838
H17   H     H_    0.131772 0.320678 0.878101 0.066594
H18   H     H_    0.055826 0.200370 0.839719 0.109894
H19   H     H_    0.711915 0.260407 0.699567 -0.058814
H20   H     H_    0.501078 0.199645 0.673445 0.077935
H21   H     H_    0.528454 0.126707 0.791096 0.120190
H22   H     H_    0.979171 0.643712 0.265162 0.121701
H23   H     H_    0.123476 0.739427 0.809816 0.075815
H24   H     H_    0.730704 0.197112 0.827010 0.109343
H25   H     H_    0.236312 0.578293 0.997383 0.132259
H26   H     H_    0.905192 0.439616 0.154554 0.114485
H27   H     H_    0.805350 0.447556 0.903036 0.070602
H28   H     H_    0.955025 0.421160 0.006777 0.070173
H29   H     H_    0.273001 0.589338 0.857172 0.114898
H30   H     H_    0.292742 0.547396 0.331731 0.076360
H31   H     H_    0.874337 0.473028 0.666600 0.074395
H32   H     H_    0.319064 0.950103 0.433780 0.071299
H33   H     H_    0.184745 0.674290 0.242552 -0.019372
H34   H     H_    0.811025 0.286344 0.386941 0.010757
H35   H     H_    0.883193 0.040118 0.564432 0.075764
H36   H     H_    0.761387 0.908490 0.573341 0.054957
H37   H     H_    0.413073 0.087872 0.454505 0.075223
H38   H     H_    0.377395 0.682981 0.463158 0.074597
H39   H     H_    0.818545 0.308091 0.535844 0.059090
H40   H     H_    0.850963 0.694241 0.158275 0.193720
H41   H     H_    0.034996 0.762567 0.141867 0.105690
H42   H     H_    0.044494 0.723110 0.656798 0.095286
H43   H     H_    0.796495 0.947966 0.310710 0.124075
H44   H     H_    0.608674 0.929315 0.353072 0.120608
H45   H     H_    0.023752 0.273738 0.409201 0.064852
H46   H     H_    0.805492 0.926359 0.408698 0.182517
H47   H     H_    0.686427 0.770177 0.369197 0.134924
H48   H     H_    0.818014 0.790175 0.297937 0.176139
H49   H     H_    0.530866 0.827825 0.776041 0.087328
H50   H     H_    0.737332 0.845056 0.826767 0.009122
H51   H     H_    0.423716 0.797934 0.902423 0.128521
H52   H     H_    0.633455 0.822199 0.952260 0.144252
H53   H     H_    0.673489 0.980620 0.927631 0.143307
H54   H     H_    0.487687 0.958269 0.971102 0.143048
H55   H     H_    0.471441 0.958826 0.867608 0.131436
H56   H     H_    0.743770 0.136940 0.296386 0.132835
H57   H     H_    0.379772 0.943218 0.111608 0.120023
H58   H     H_    0.377103 0.843889 0.036461 0.164048
H59   H     H_    0.189372 0.863614 0.071449 0.102175
H60   H     H_    0.311682 0.739108 0.127070 0.119701
H61   H     H_    0.286531 0.833886 0.201461 0.092499
H62   H     H_    0.858158 0.848317 0.094249 0.073777
H63   H     H_    0.860005 0.873263 0.198218 0.055803
H64   H     H_    0.693751 0.972660 0.076092 0.135004
H65   H     H_    0.725843 0.008582 0.181609 0.105732
H66   H     H_    0.032811 0.030083 0.183369 0.138381
H67   H     H_    0.840736 0.123086 0.391634 0.070758
H68   H     H_    0.935548 0.101023 0.124805 0.150844
H69   H     H_    0.997680 0.000055 0.076185 0.130422
H70   H     H_    0.848203 0.053121 0.828180 0.133146
H71   H     H_    0.655201 0.978197 0.780912 0.122746
H72   H     H_    0.837842 0.975680 0.735638 0.129377
H73   H     H_    0.632956 0.056372 0.670966 0.126445
H74   H     H_    0.835482 0.127527 0.706478 0.143902
H75   H     H_    0.407107 0.422577 0.968062 0.089116
H76   H     H_    0.319522 0.360153 0.037604 0.004205
H77   H     H_    0.688723 0.443922 0.047027 0.137279
H78   H     H_    0.958541 0.125566 0.311150 0.121998
H79   H     H_    0.601122 0.378659 0.115999 0.121897
H80   H     H_    0.501444 0.242984 0.005830 0.141240
H81   H     H_    0.722534 0.281286 0.018061 0.139698
H82   H     H_    0.592121 0.308489 0.937320 0.164227
H83   H     H_    0.151512 0.958720 0.712510 0.127405
H84   H     H_    0.153941 0.957962 0.608398 0.144712
H85   H     H_    0.990470 0.883944 0.640310 0.139865
H86   H     H_    0.356602 0.870557 0.673923 0.090738
H87   H     H_    0.222635 0.809471 0.585848 0.099152
H88   H     H_    0.853287 0.635194 0.693277 -0.270719
O1    O     O_2   0.823140 0.439340 0.307240 -0.461077
O2    O     O_2   0.202856 0.181745 0.551919 -0.481775
O3    O     O_3   0.137061 0.206029 0.696203 -0.601177
O4    O     O_3   0.097070 0.445850 0.405300 -0.495113
O5    O     O_3   0.592380 0.611270 0.541370 -0.485617
O6    O     O_2   0.323920 0.276750 0.459260 -0.463126
O7    O     O_3   0.466356 0.235565 0.332251 -0.645212
O8    O     O_2   0.491074 0.467648 0.782542 -0.485194
O9    O     O_3   0.540804 0.300723 0.772472 -0.611774
O10   O     O_3   0.627590 0.606740 0.357340 -0.498378
O11   O     O_2   0.713949 0.540163 0.223075 -0.481395
O12   O     O_3   0.735882 0.739472 0.668890 -0.669220
O13   O     O_3   0.947531 0.293669 0.295849 -0.636036
O14   O     O_3   0.591299 0.680828 0.206546 -0.572397
O15   O     O_2   0.865800 0.723280 0.540790 -0.475864
O16   O     O_3   0.060870 0.655550 0.397490 -0.487980
O17   O     O_2   0.000523 0.819986 0.437310 -0.497304
O18   O     O_3   0.587487 0.710927 0.808278 -0.626416
O19   O     O_3   0.631902 0.814838 0.126607 -0.620533
O20   O     O_3   0.420921 0.502818 0.077078 -0.636185
O21   O     O_3   0.089108 0.783295 0.294822 -0.630117
O22   O     O_2   0.366580 0.560690 0.692810 -0.424477
O23   O     O_3   0.092650 0.554230 0.594710 -0.486935
O24   O     O_3   0.562120 0.393340 0.642670 -0.482257
O25   O     O_3   0.280594 0.704269 0.692466 -0.597812
O26   O     O_3   0.597340 0.388800 0.458640 -0.475516
O27   O     O_3   0.128850 0.344520 0.602520 -0.492583
P1    P     P_3+3 0.993190 0.413330 0.319190 0.980950
P2    P     P_3+3 0.695930 0.711340 0.564320 0.985898
P3    P     P_3+3 0.122333 0.770197 0.394619 0.918402
P4    P     P_3+3 0.196530 0.586750 0.680820 1.026546
P5    P     P_3+3 0.082908 0.226254 0.600259 0.943790
P6    P     P_3+3 0.574039 0.584493 0.253745 0.973028
P7    P     P_3+3 0.499499 0.273569 0.434967 0.951376
P8    P     P_3+3 0.604670 0.406701 0.745838 0.937134

loop_
_geom_bond_atom_site_label_1
_geom_bond_atom_site_label_2
_ccdc_geom_bond_type
Ba2   O6    S    
C53   H80   S    
C55   H84   S    
C11   H29   S    
C40   H50   S    
C46   H62   S    
O15   P2    D    
C5    C6    S    
C51   C52   S    
C19   P5    S    
C47   H65   S    
C51   H75   S    
C9    C17   A    
Ba2   P4    S    
C51   H76   S    
C33   C35   S    
C22   C24   A    
C45   H15   S    
C8    C13   A    
Ba2   O24   S    
C36   C37   S    
C49   H73   S    
O6    P7    D    
O12   P2    S    
C27   C31   A    
C32   H1    S    
C54   C55   S    
C44   H57   S    
Ba1   Ba2   S    
C16   H41   S    
C12   O14   S    
C41   H51   S    
O13   P1    S    
C17   H31   S    
C48   H69   S    
C56   H16   S    
Ba2   O27   S    
C45   O3    S    
C49   H74   S    
C36   O12   S    
C52   H79   S    
Ba1   O15   S    
C6    C7    D    
C4    H33   S    
C46   O19   S    
C28   H42   S    
C21   C22   A    
O8    P8    D    
C36   H88   S    
C34   H10   S    
C51   O20   S    
Ba2   O22   S    
C38   H47   S    
C35   H67   S    
C24   P7    S    
O23   P4    S    
C1    H3    S    
C42   H53   S    
C57   C58   S    
C16   H13   S    
C53   H81   S    
C19   C20   A    
O14   P6    S    
C50   H72   S    
C37   H4    S    
C23   H7    S    
C32   H23   S    
O11   P6    D    
O7    P7    S    
C34   H9    S    
C1    O19   S    
O2    P5    D    
C42   H54   S    
O27   P5    S    
C4    C16   S    
O4    P1    S    
C33   O13   S    
C53   H82   S    
C28   C32   S    
C15   H25   S    
C50   H71   S    
Ba1   O10   S    
O24   P8    S    
C3    C5    D    
C14   C15   D    
C32   H12   S    
C43   H60   S    
C43   C44   S    
C28   C54   S    
C2    C59   S    
C1    C43   S    
C49   C50   S    
C31   H38   S    
C16   H40   S    
C54   H87   S    
C41   C42   S    
C48   H68   S    
Ba2   O26   S    
Ba1   P2    S    
C29   C30   A    
C18   H39   S    
Ba1   O16   S    
C12   H6    S    
C8    H27   S    
C44   H59   S    
Ba1   O1    S    
C10   C11   A    
Ba1   O4    S    
C1    C12   S    
C39   H44   S    
C56   H18   S    
O1    P1    D    
C22   H37   S    
C38   C39   S    
C10   P4    S    
C26   C31   A    
Ba2   O4    S    
C27   P2    S    
O5    P2    S    
O16   P3    S    
C37   H5    S    
C7    C59   D    
O22   P4    D    
C25   H32   S    
C23   H8    S    
C40   C41   S    
O25   P4    S    
C7    P1    S    
C40   O18   S    
O26   P7    S    
C36   H2    S    
C4    O21   S    
C13   C15   S    
C52   C53   S    
C46   C47   S    
C4    H22   S    
C39   H46   S    
C55   H83   S    
O9    P8    S    
C25   C30   A    
C50   H70   S    
C20   H35   S    
C5    C14   S    
C9    P8    S    
C57   H20   S    
C2    C3    S    
C48   H66   S    
C57   H19   S    
C46   H63   S    
C58   H24   S    
C38   H48   S    
C49   C58   S    
C33   H34   S    
C43   H61   S    
C47   H64   S    
Ba1   O23   S    
C39   H43   S    
O21   P3    S    
C6    H26   S    
C21   C30   S    
C58   H21   S    
C54   H86   S    
C11   C13   A    
C40   H49   S    
C45   H14   S    
C27   C29   A    
C33   H45   S    
C41   H52   S    
C45   C56   S    
C52   H77   S    
C18   C24   A    
C10   C17   A    
C57   O9    S    
C44   H58   S    
C29   H36   S    
O10   P6    S    
C37   O18   S    
Ba1   O5    S    
C26   P3    S    
C8    C9    A    
C56   H17   S    
C23   C34   S    
C12   C38   S    
C59   H30   S    
C14   H28   S    
C35   H56   S    
C18   C19   A    
C42   H55   S    
Ba2   O5    S    
C47   C48   S    
C35   H78   S    
C25   C26   A    
C3    O20   S    
C20   C21   A    
O17   P3    D    
C2    P6    S    
O3    P5    S    
C55   H85   S    
Ba1   P1    S    
C28   O25   S    
C34   H11   S    
Ba2   O23   S    
C23   O7    S    
Ba1   O26   S    
