data_mof_unit_pretest_772.cif
_audit_creation_date              2012-12-10T17:55:28-0500
_audit_creation_method            fapswitch 2.2
_symmetry_space_group_name_H-M    P1
_symmetry_Int_Tables_number       1
_space_group_crystal_system       triclinic
_cell_length_a                    10.831425
_cell_length_b                    9.528706
_cell_length_c                    10.9264
_cell_angle_alpha                 89.997241
_cell_angle_beta                  90.595733
_cell_angle_gamma                 90.000183
_cell_volume                      1127.64693375

loop_
_atom_site_label
_atom_site_type_symbol
_atom_type_description
_atom_site_fract_x
_atom_site_fract_y
_atom_site_fract_z
_atom_type_partial_charge
C1    C     C_R   0.262092 0.499928 0.500162 0.774145
C2    C     C_R   0.737908 0.499929 0.499842 0.774182
C3    C     C_R   0.506283 0.500003 0.265641 0.717810
C4    C     C_R   0.493695 0.499992 0.734356 0.717432
C5    C     C_2   0.506721 0.391200 0.933601 -0.252564
C6    C     C_2   0.493576 0.391147 0.066391 -0.252677
C7    C     C_2   0.470547 0.500943 0.865055 0.427061
C8    C     C_2   0.529404 0.501020 0.134945 0.426823
C9    C     C_R   0.063874 0.372203 0.500025 -0.193550
C10   C     C_R   0.936126 0.372203 0.499954 -0.193594
C11   C     C_R   0.871763 0.499777 0.499597 -0.013269
C12   C     C_R   0.128238 0.499776 0.500415 -0.013226
C13   C     C_R   0.936171 0.627211 0.499353 -0.203016
C14   C     C_R   0.063831 0.627211 0.500700 -0.203114
C15   C     C_R   0.426144 0.075006 0.420866 -0.158385
C16   C     C_R   0.573855 0.074999 0.579134 -0.158375
C17   C     C_R   0.423019 0.924730 0.422036 0.535831
C18   C     C_R   0.576981 0.924722 0.577965 0.535854
Cu1   Cu    Cu3+1 0.500000 0.640660 0.500000 1.043263
Cu2   Cu    Cu3+1 0.500000 0.359340 0.500000 0.930321
H1    H     H_    0.544036 0.297195 0.891555 0.132117
H2    H     H_    0.456563 0.296975 0.108430 0.132305
H3    H     H_    0.111914 0.272482 0.499875 0.145333
H4    H     H_    0.888084 0.272482 0.500075 0.145341
H5    H     H_    0.888236 0.726846 0.498137 0.154770
H6    H     H_    0.111767 0.726844 0.501946 0.154722
H7    H     H_    0.370128 0.134022 0.356717 0.150171
H8    H     H_    0.629870 0.134010 0.643283 0.150148
N1    N     N_R   0.500000 0.852070 0.500000 -0.242882
N2    N     N_R   0.500000 0.147940 0.500000 -0.193427
O1    O     O_R   0.319640 0.618740 0.499990 -0.557600
O2    O     O_R   0.680360 0.618740 0.500010 -0.557471
O3    O     O_R   0.319620 0.381170 0.499990 -0.588898
O4    O     O_R   0.680380 0.381170 0.500010 -0.588926
O5    O     O_R   0.500000 0.618750 0.321940 -0.503678
O6    O     O_R   0.500000 0.618750 0.678060 -0.503928
O7    O     O_R   0.499970 0.381180 0.321940 -0.613957
O8    O     O_R   0.500030 0.381180 0.678060 -0.613866
O9    O     O_3   0.412405 0.615873 0.917234 -0.501954
C19   C     C_3   0.287028 0.616040 0.881001 -0.306312
H9    H     H_    0.240984 0.515232 0.904652 0.138263
H10   H     H_    0.276291 0.638236 0.781533 0.150457
H11   H     H_    0.238993 0.700832 0.931194 0.192730
O10   O     O_3   0.587195 0.616205 0.082812 -0.501833
C20   C     C_3   0.712796 0.616114 0.118231 -0.306065
H12   H     H_    0.758713 0.515621 0.093424 0.138656
H13   H     H_    0.724188 0.637189 0.217816 0.149730
H14   H     H_    0.760445 0.701516 0.068446 0.192776
O11   O     O_3   0.350541 0.847675 0.340500 -0.520655
C21   C     C_3   0.234054 0.909942 0.318939 -0.358198
H15   H     H_    0.240680 0.991947 0.247080 0.162150
H16   H     H_    0.192797 0.953233 0.403975 0.129016
H17   H     H_    0.170211 0.828001 0.283681 0.193981
O12   O     O_3   0.649458 0.847655 0.659501 -0.520710
C22   C     C_3   0.765930 0.909941 0.681101 -0.358433
H18   H     H_    0.759271 0.991925 0.752969 0.162140
H19   H     H_    0.807203 0.953262 0.596081 0.129102
H20   H     H_    0.829775 0.828004 0.716367 0.193934

loop_
_geom_bond_atom_site_label_1
_geom_bond_atom_site_label_2
_ccdc_geom_bond_type
C16   H8    S    
C21   H16   S    
C22   H18   S    
C4    O6    A    
C22   H19   S    
Cu2   O8    S    
C9    C10   A    
C15   H7    S    
Cu1   Cu2   S    
C3    O5    A    
Cu2   O4    S    
Cu1   O1    S    
C2    O4    A    
C19   H10   S    
C21   H15   S    
C1    O3    A    
C18   N1    A    
Cu2   N2    S    
C13   C14   A    
C14   H6    S    
Cu2   O7    S    
C11   C13   A    
C13   H5    S    
C1    C12   S    
C4    C7    S    
C2    C11   S    
C7    O9    S    
C16   C18   A    
C19   H9    S    
C12   C14   A    
Cu1   O5    S    
C3    C8    S    
Cu1   O6    S    
C20   H13   S    
C5    C6    S    
C9    C12   A    
C20   H14   S    
C21   H17   S    
C10   C11   A    
Cu2   O3    S    
C16   N2    A    
C6    H2    S    
C20   H12   S    
C1    O1    A    
C17   N1    A    
O10   C20   S    
C3    O7    A    
C15   N2    A    
C2    O2    A    
O11   C21   S    
C22   H20   S    
C17   O11   S    
O9    C19   S    
C5    C7    D    
C18   O12   S    
O12   C22   S    
C9    H3    S    
C6    C8    D    
C10   H4    S    
C15   C17   A    
Cu1   O2    S    
C19   H11   S    
C8    O10   S    
C4    O8    A    
C5    H1    S    
Cu1   N1    S    
