data_mof_unit_pretest_234.cif
_audit_creation_date              2012-12-10T16:54:04-0500
_audit_creation_method            fapswitch 2.2
_symmetry_space_group_name_H-M    P1
_symmetry_Int_Tables_number       1
_space_group_crystal_system       triclinic
_cell_length_a                    9.700787
_cell_length_b                    10.952294
_cell_length_c                    13.478514
_cell_angle_alpha                 90.375509
_cell_angle_beta                  71.999071
_cell_angle_gamma                 88.540401
_cell_volume                      1361.34180337

loop_
_atom_site_label
_atom_site_type_symbol
_atom_type_description
_atom_site_fract_x
_atom_site_fract_y
_atom_site_fract_z
_atom_type_partial_charge
C1    C     C_R   0.496528 0.734630 0.504508 0.800028
C2    C     C_R   0.447712 0.481745 0.974572 0.089583
C3    C     C_R   0.469762 0.528350 0.872715 0.051614
C4    C     C_R   0.549440 0.512640 0.027771 0.029985
C5    C     C_R   0.680052 0.570490 0.973652 -0.001819
C6    C     C_R   0.694728 0.618739 0.875561 -0.137475
C7    C     C_R   0.587130 0.604908 0.829361 -0.163639
C8    C     C_R   0.520394 0.496447 0.134956 -0.260859
C9    C     C_R   0.763669 0.555155 0.126309 0.330676
C10   C     C_R   0.376001 0.495517 0.815028 -0.096181
C11   C     C_2   0.602725 0.062355 0.521060 0.445522
C12   C     C_R   0.421911 0.503567 0.700316 0.794449
C13   C     C_2   0.511974 0.133798 0.487417 -0.318912
C14   C     C_2   0.605674 0.930516 0.504021 -0.279926
C15   C     C_2   0.484700 0.865752 0.522685 0.187941
C16   C     C_2   0.052491 0.583372 0.547911 0.338031
C17   C     C_2   0.910185 0.594096 0.523937 -0.063895
C18   C     C_R   0.502504 0.265396 0.498868 0.878713
C19   C     C_R   0.578433 0.503433 0.299651 0.856083
C20   C     C_R   0.789493 0.585970 0.021279 0.325240
C21   C     C_R   0.624772 0.515907 0.185075 -0.219829
C22   C     C_R   0.249134 0.434032 0.864229 -0.131893
C23   C     C_R   0.225219 0.389115 0.963792 -0.112976
C24   C     C_R   0.328092 0.403118 0.016192 0.257327
Cu1   Cu    Cu3+1 0.361370 0.499980 0.499980 0.990092
Cu2   Cu    Cu3+1 0.638630 0.500020 0.500020 1.021111
H1    H     H_    0.442409 0.093811 0.447167 0.167421
H2    H     H_    0.711989 0.885331 0.476676 0.169600
H3    H     H_    0.133099 0.450197 0.442771 0.192056
H4    H     H_    0.853366 0.681644 0.533836 0.165126
H5    H     H_    0.896761 0.417208 0.500101 0.222444
H6    H     H_    0.786404 0.672618 0.835624 0.200183
H7    H     H_    0.412222 0.476365 0.182314 0.231681
H8    H     H_    0.174313 0.410618 0.822262 0.188135
H9    H     H_    0.132179 0.332900 0.996419 0.159057
H10   H     H_    0.598590 0.654204 0.758140 0.159507
N1    N     N_2   0.152660 0.501340 0.501130 -0.308134
N2    N     N_2   0.846520 0.501370 0.501160 -0.276085
O1    O     O_R   0.382960 0.678040 0.499980 -0.557174
O2    O     O_R   0.617100 0.678080 0.500020 -0.609266
O3    O     O_R   0.325800 0.499940 0.650950 -0.590797
O4    O     O_R   0.559930 0.499980 0.650990 -0.566712
O5    O     O_R   0.382900 0.321920 0.499980 -0.567856
O6    O     O_R   0.617040 0.321960 0.500020 -0.527667
O7    O     O_R   0.440070 0.500020 0.349010 -0.593229
O8    O     O_R   0.674200 0.500060 0.349050 -0.515626
Cl1   Cl    Cl    0.903990 0.575858 0.182783 -0.543305
Cl2   Cl    Cl    0.309578 0.929114 0.586091 -0.633169
N3    N     N_2   0.072558 0.662223 0.627383 -0.408637
H11   H     H_    0.170339 0.659583 0.641220 0.326426
C25   C     C_3   0.997435 0.780222 0.647501 -0.555690
H12   H     H_    0.028162 0.829957 0.709225 0.280816
H13   H     H_    0.878410 0.769602 0.676659 0.191412
H14   H     H_    0.026780 0.835231 0.575399 0.262090
Cl3   Cl    Cl    0.959178 0.646172 0.950697 -0.578386
N4    N     N_2   0.316993 0.327076 0.103470 -0.460210
H15   H     H_    0.212269 0.305316 0.145049 0.272564
C26   C     C_3   0.414278 0.221059 0.080724 -0.646668
H16   H     H_    0.404475 0.171159 0.153926 0.235336
H17   H     H_    0.528571 0.248623 0.047152 0.244718
H18   H     H_    0.386066 0.158881 0.024871 0.242295
Cl4   Cl    Cl    0.724228 0.118125 0.583746 -0.581247

loop_
_geom_bond_atom_site_label_1
_geom_bond_atom_site_label_2
_ccdc_geom_bond_type
C6    H6    S    
C23   C24   A    
C19   O7    A    
C6    C7    A    
C1    C15   S    
C18   O6    A    
C24   N4    S    
C7    H10   S    
C9    C20   A    
C2    C4    A    
H5    N2    S    
C16   N1    D    
C4    C8    A    
C25   H14   S    
Cu2   O2    S    
Cu1   O5    S    
C26   H18   S    
C11   Cl4   S    
C2    C3    A    
Cu1   Cu2   S    
C19   O8    A    
Cu2   O6    S    
C3    C10   A    
C18   O5    A    
Cu1   O1    S    
C17   H4    S    
C11   C13   D    
C9    C21   A    
C12   O3    A    
C10   C12   S    
C15   Cl2   S    
C20   Cl3   S    
C13   C18   S    
C19   C21   S    
N4    C26   S    
C9    Cl1   S    
C3    C7    A    
C17   N2    D    
C2    C24   A    
C5    C6    A    
C22   H8    S    
C23   H9    S    
C16   C17   S    
N4    H15   S    
Cu2   O8    S    
C25   H13   S    
Cu1   O3    S    
C25   H12   S    
Cu1   O7    S    
C4    C5    A    
C16   N3    S    
Cu2   O4    S    
N3    H11   S    
H3    N1    S    
C11   C14   S    
C5    C20   A    
C1    O1    A    
C14   C15   D    
C13   H1    S    
C12   O4    A    
C1    O2    A    
C14   H2    S    
C26   H16   S    
C22   C23   A    
C26   H17   S    
C10   C22   A    
Cu2   N2    S    
Cu1   N1    S    
C8    H7    S    
N3    C25   S    
C8    C21   A    
