data_mof_unit_pretest_528.cif
_audit_creation_date              2012-12-10T20:33:27-0500
_audit_creation_method            fapswitch 2.2
_symmetry_space_group_name_H-M    P1
_symmetry_Int_Tables_number       1
_space_group_crystal_system       triclinic
_cell_length_a                    14.150221
_cell_length_b                    10.591548
_cell_length_c                    9.89258
_cell_angle_alpha                 89.517918
_cell_angle_beta                  89.905257
_cell_angle_gamma                 90.408183
_cell_volume                      1482.53583936

loop_
_atom_site_label
_atom_site_type_symbol
_atom_type_description
_atom_site_fract_x
_atom_site_fract_y
_atom_site_fract_z
_atom_type_partial_charge
C1    C     C_R   0.499970 0.260571 0.500305 0.878439
C2    C     C_1   0.772277 0.500143 0.499780 -0.220141
C3    C     C_R   0.581711 0.064817 0.483456 0.125826
C4    C     C_R   0.497594 0.128940 0.498849 -0.117665
C5    C     C_R   0.410550 0.066588 0.491654 -0.289563
C6    C     C_R   0.408265 0.935235 0.491649 0.160229
C7    C     C_R   0.495406 0.871384 0.496063 -0.110753
C8    C     C_R   0.580584 0.935949 0.482276 0.081170
C9    C     C_3   0.667845 0.927114 0.566602 -0.497479
C10   C     C_3   0.669005 0.070363 0.567820 -0.493489
C11   C     C_R   0.425172 0.451795 0.072619 0.149742
C12   C     C_R   0.329217 0.500275 0.500084 0.876091
C13   C     C_R   0.568835 0.560844 0.071070 -0.116984
C14   C     C_R   0.568346 0.561906 0.927243 -0.135944
C15   C     C_R   0.426625 0.445969 0.931009 0.181270
C16   C     C_3   0.387117 0.310705 0.937303 0.258968
C17   C     C_3   0.382701 0.325309 0.092001 -0.569977
C18   C     C_R   0.499001 0.739437 0.499340 0.885197
C19   C     C_R   0.670802 0.500094 0.499889 0.890894
C20   C     C_1   0.227782 0.500394 0.500268 -0.209297
C21   C     C_1   0.142551 0.500421 0.500351 -0.023585
C22   C     C_1   0.042680 0.500374 0.500287 -0.002972
C23   C     C_1   0.957425 0.500302 0.500127 0.001166
C24   C     C_1   0.857533 0.500209 0.499897 -0.019163
H1    H     H_    0.345344 0.119676 0.490423 0.146070
H2    H     H_    0.310606 0.333399 0.135941 0.178155
H3    H     H_    0.428485 0.260572 0.151121 0.229431
H4    H     H_    0.654385 0.883873 0.667746 0.208118
H5    H     H_    0.729776 0.112410 0.511622 0.203018
H6    H     H_    0.625536 0.607740 0.124480 0.146929
H7    H     H_    0.624445 0.610000 0.872623 0.148264
N1    N     N_R   0.499420 0.499140 0.142800 -0.093131
N2    N     N_R   0.499420 0.499180 0.857150 -0.106222
O1    O     O_R   0.500010 0.316790 0.614690 -0.622892
O2    O     O_R   0.500000 0.316760 0.385350 -0.610687
O3    O     O_R   0.373720 0.500020 0.614700 -0.599120
O4    O     O_R   0.373710 0.499980 0.385350 -0.592803
O5    O     O_R   0.500000 0.683240 0.614650 -0.617839
O6    O     O_R   0.499990 0.683210 0.385310 -0.610445
O7    O     O_R   0.626290 0.500020 0.614650 -0.601927
O8    O     O_R   0.626280 0.499980 0.385300 -0.597961
Zn1   Zn    Zn3+2 0.500010 0.500020 0.653130 0.926454
Zn2   Zn    Zn3+2 0.499990 0.499980 0.346870 0.932687
C25   C     C_3   0.454292 0.199565 0.899555 -0.306380
C26   C     C_3   0.559233 0.219147 0.932667 -0.878180
H8    H     H_    0.591736 0.289261 0.862641 0.278181
H9    H     H_    0.569911 0.249908 0.038398 0.261145
H10   H     H_    0.597007 0.128577 0.919194 0.236090
H11   H     H_    0.429241 0.113315 0.954001 0.190276
H12   H     H_    0.449589 0.176563 0.791291 0.237282
C27   C     C_3   0.313888 0.867131 0.494165 -0.420141
C28   C     C_3   0.282347 0.832960 0.351627 -0.843360
H13   H     H_    0.333939 0.768923 0.303489 0.276016
H14   H     H_    0.212686 0.784176 0.356301 0.248035
H15   H     H_    0.275354 0.919699 0.288604 0.255995
H16   H     H_    0.317522 0.780464 0.557836 0.199835
H17   H     H_    0.259146 0.927954 0.540583 0.205788
H18   H     H_    0.727981 0.886213 0.509760 0.203445
H19   H     H_    0.656196 0.110767 0.669541 0.210896
C29   C     C_3   0.284351 0.298635 0.880798 -0.392611
C30   C     C_3   0.274932 0.238177 0.741756 -0.893030
H20   H     H_    0.324190 0.281938 0.668567 0.279787
H21   H     H_    0.288827 0.135241 0.748513 0.242930
H22   H     H_    0.201772 0.250765 0.703768 0.252557
H23   H     H_    0.240855 0.239559 0.950952 0.204254
H24   H     H_    0.250858 0.393319 0.876884 0.203111

loop_
_geom_bond_atom_site_label_1
_geom_bond_atom_site_label_2
_ccdc_geom_bond_type
C25   H11   S    
C29   H23   S    
C30   H22   S    
C23   C24   S    
O4    Zn2   S    
C6    C7    A    
C27   H17   S    
C13   C14   A    
C6    C27   S    
C12   O3    A    
O2    Zn2   S    
C9    C10   S    
C16   C25   S    
C13   N1    A    
O3    Zn1   S    
O1    Zn1   S    
C28   H15   S    
C14   H7    S    
C18   O6    A    
C7    C18   S    
C12   C20   S    
C14   N2    A    
O7    Zn1   S    
C10   H19   S    
C18   O5    A    
C29   H24   S    
C7    C8    A    
C3    C10   S    
C21   C22   S    
C28   H13   S    
O8    Zn2   S    
C10   H5    S    
C30   H20   S    
C5    H1    S    
N2    Zn1   S    
N1    Zn2   S    
C28   H14   S    
C1    O1    A    
O5    Zn1   S    
C26   H9    S    
C2    C24   T    
C5    C6    A    
C3    C8    A    
C1    C4    S    
C16   C17   S    
C19   O7    A    
C17   H2    S    
C3    C4    A    
C17   H3    S    
C19   O8    A    
C13   H6    S    
C25   C26   S    
C1    O2    A    
C8    C9    S    
C9    H18   S    
C16   C29   S    
C26   H10   S    
C25   H12   S    
C12   O4    A    
C30   H21   S    
C22   C23   T    
C4    C5    A    
O6    Zn2   S    
C20   C21   T    
C26   H8    S    
C11   C15   A    
C9    H4    S    
C15   N2    A    
C15   C16   S    
C11   C17   S    
C27   C28   S    
C2    C19   S    
C29   C30   S    
C11   N1    A    
C27   H16   S    
