data_mof_unit_pretest_1041.cif
_audit_creation_date              2012-12-10T20:49:45-0500
_audit_creation_method            fapswitch 2.2
_symmetry_space_group_name_H-M    P1
_symmetry_Int_Tables_number       1
_space_group_crystal_system       triclinic
_cell_length_a                    8.10639
_cell_length_b                    8.922956
_cell_length_c                    16.56243
_cell_angle_alpha                 90.000035
_cell_angle_beta                  86.35529
_cell_angle_gamma                 90.000025
_cell_volume                      1195.58654594

loop_
_atom_site_label
_atom_site_type_symbol
_atom_type_description
_atom_site_fract_x
_atom_site_fract_y
_atom_site_fract_z
_atom_type_partial_charge
C1    C     C_R   0.500000 0.782014 0.500000 0.955255
C2    C     C_R   0.590460 0.319287 0.235165 0.272903
C3    C     C_R   0.601669 0.489746 0.866680 0.365885
C4    C     C_R   0.555748 0.262970 0.159324 0.370878
C5    C     C_R   0.541592 0.347702 0.891054 -0.229715
C6    C     C_R   0.458402 0.347704 0.108947 -0.229720
C7    C     C_R   0.444241 0.262972 0.840677 0.370875
C8    C     C_R   0.398333 0.489751 0.133320 0.365884
C9    C     C_R   0.409532 0.319290 0.764836 0.272906
C10   C     C_R   0.431982 0.545564 0.209270 0.311562
C11   C     C_2   0.565512 0.298753 0.973547 0.038199
C12   C     C_R   0.500000 0.217991 0.500000 0.974918
C13   C     C_2   0.434479 0.298754 0.026453 0.038201
C14   C     C_1   0.500000 0.934802 0.500000 -0.083497
C15   C     C_1   0.500000 0.065214 0.500000 -0.064158
C16   C     C_R   0.479218 0.497398 0.653991 1.016409
C17   C     C_R   0.520782 0.497399 0.346009 1.016411
C18   C     C_R   0.474383 0.459460 0.739360 -0.341548
C19   C     C_R   0.525616 0.459461 0.260640 -0.341547
C20   C     C_R   0.568022 0.545559 0.790730 0.311563
Cl1   Cl    Cl    0.372423 0.082954 0.870996 -0.352807
Cl2   Cl    Cl    0.284003 0.600419 0.067875 -0.376858
Cl3   Cl    Cl    0.627557 0.082948 0.129005 -0.352801
Cl4   Cl    Cl    0.716005 0.600410 0.932125 -0.376861
Cl5   Cl    Cl    0.644310 0.723658 0.759487 -0.409667
Cl6   Cl    Cl    0.705080 0.207814 0.299991 -0.481875
Cl7   Cl    Cl    0.355702 0.723665 0.240513 -0.409665
Cl8   Cl    Cl    0.294907 0.207820 0.700010 -0.481872
H1    H     H_    0.310947 0.307542 0.004785 0.205666
H2    H     H_    0.689045 0.307537 0.995215 0.205666
N1    N     N_1   0.926360 0.500000 0.499990 0.012280
N2    N     N_1   0.073640 0.500000 0.500010 0.012280
O1    O     O_R   0.363150 0.714660 0.500000 -0.608180
O2    O     O_R   0.636850 0.285340 0.500000 -0.601669
O3    O     O_R   0.636850 0.714660 0.500000 -0.608179
O4    O     O_R   0.363150 0.285340 0.500000 -0.601669
O5    O     O_R   0.346950 0.500000 0.615800 -0.576534
O6    O     O_R   0.653050 0.500000 0.384200 -0.576535
O7    O     O_R   0.620700 0.500000 0.615800 -0.604987
O8    O     O_R   0.379300 0.500000 0.384200 -0.604989
Zn1   Zn    Zn3+2 0.317220 0.500000 0.500010 1.098797
Zn2   Zn    Zn3+2 0.682780 0.500000 0.499990 1.098797

loop_
_geom_bond_atom_site_label_1
_geom_bond_atom_site_label_2
_ccdc_geom_bond_type
C10   Cl7   S    
C8    Cl2   S    
N2    Zn1   S    
O6    Zn2   S    
N1    Zn2   S    
C12   O4    A    
C10   C19   A    
C2    C4    A    
N1    N2    T    
O2    Zn2   S    
C12   C15   S    
C16   O5    A    
O1    Zn1   S    
O4    Zn1   S    
C1    O1    A    
C3    C20   A    
C2    Cl6   S    
C7    Cl1   S    
C6    C13   S    
C11   C13   D    
C3    Cl4   S    
C11   H2    S    
C8    C10   A    
O8    Zn1   S    
C17   C19   S    
C5    C11   S    
O7    Zn2   S    
C18   C20   A    
C17   O6    A    
O5    Zn1   S    
C4    C6    A    
C20   Cl5   S    
C16   O7    A    
C12   O2    A    
C7    C9    A    
C9    C18   A    
C1    O3    A    
C16   C18   S    
C13   H1    S    
C5    C7    A    
O3    Zn2   S    
C14   C15   T    
C6    C8    A    
C1    C14   S    
C4    Cl3   S    
C2    C19   A    
C9    Cl8   S    
C3    C5    A    
C17   O8    A    
