data_mof_unit_pretest_1816.cif
_audit_creation_date              2012-12-10T19:14:02-0500
_audit_creation_method            fapswitch 2.2
_symmetry_space_group_name_H-M    P1
_symmetry_Int_Tables_number       1
_space_group_crystal_system       triclinic
_cell_length_a                    38.923984
_cell_length_b                    38.923999
_cell_length_c                    23.516541
_cell_angle_alpha                 90.001681
_cell_angle_beta                  90.001699
_cell_angle_gamma                 89.998496
_cell_volume                      35629.3730331

loop_
_atom_site_label
_atom_site_type_symbol
_atom_type_description
_atom_site_fract_x
_atom_site_fract_y
_atom_site_fract_z
_atom_type_partial_charge
C1    C     C_R   0.567172 0.999999 0.500000 1.002926
C2    C     C_R   0.017287 0.731646 0.543049 0.562768
C3    C     C_R   1.000000 0.500000 0.390637 0.895920
C4    C     C_R   1.000000 0.500000 0.109363 0.895914
C5    C     C_R   0.500000 1.000000 0.109363 0.895942
C6    C     C_R   1.000000 0.499999 0.890637 0.895944
C7    C     C_R   0.499999 1.000000 0.890637 0.895913
C8    C     C_1   0.499999 0.000001 0.669575 -0.130342
C9    C     C_1   0.000001 0.499999 0.669575 -0.130313
C10   C     C_1   0.500001 0.999999 0.330425 -0.130316
C11   C     C_1   0.999999 0.500001 0.330425 -0.130340
C12   C     C_1   0.999999 0.500001 0.169575 -0.130342
C13   C     C_R   0.268347 0.017280 0.543100 0.562636
C14   C     C_1   0.500001 0.999999 0.169575 -0.130316
C15   C     C_1   0.000001 0.499999 0.830425 -0.130316
C16   C     C_1   0.499999 0.000001 0.830425 -0.130342
C17   C     C_1   0.499999 0.000002 0.720364 0.033060
C18   C     C_1   0.000002 0.499999 0.720364 0.033090
C19   C     C_1   0.500001 0.999998 0.279636 0.033090
C20   C     C_1   0.999998 0.500001 0.279636 0.033059
C21   C     C_1   0.999999 0.500001 0.220364 0.033059
C22   C     C_1   0.500002 0.999999 0.220364 0.033090
C23   C     C_1   0.000001 0.499998 0.779636 0.033090
C24   C     C_R   0.982728 0.268354 0.543080 0.562748
C25   C     C_1   0.499998 0.000001 0.779636 0.033060
C26   C     C_R   0.876559 0.993267 0.449468 0.593436
C27   C     C_R   0.006734 0.876560 0.449465 0.593434
C28   C     C_R   0.123441 0.006741 0.449479 0.593429
C29   C     C_R   0.993263 0.123440 0.449474 0.593438
C30   C     C_R   0.123440 0.993252 0.550530 0.593429
C31   C     C_R   0.993273 0.876558 0.550525 0.593440
C32   C     C_R   0.876560 0.006737 0.550526 0.593433
C33   C     C_R   0.006733 0.123441 0.550532 0.593434
C34   C     C_R   0.376559 0.493267 0.949468 0.593435
C35   C     C_R   0.268352 0.982723 0.456939 0.562761
C36   C     C_R   0.506747 0.376560 0.949470 0.593428
C37   C     C_R   0.623441 0.506739 0.949479 0.593434
C38   C     C_R   0.493263 0.623440 0.949473 0.593437
C39   C     C_R   0.623440 0.493255 0.050531 0.593428
C40   C     C_R   0.493259 0.376559 0.050520 0.593433
C41   C     C_R   0.376560 0.506737 0.050526 0.593438
C42   C     C_R   0.506733 0.623441 0.050532 0.593435
C43   C     C_R   0.840872 0.993315 0.449671 -0.243736
C44   C     C_R   0.006686 0.840873 0.449665 -0.243736
C45   C     C_R   0.159128 0.006691 0.449686 -0.243731
C46   C     C_R   0.982711 0.731652 0.456908 0.562629
C47   C     C_R   0.993311 0.159127 0.449677 -0.243739
C48   C     C_R   0.159127 0.993301 0.550330 -0.243733
C49   C     C_R   0.993323 0.840871 0.550319 -0.243734
C50   C     C_R   0.840873 0.006689 0.550322 -0.243741
C51   C     C_R   0.006684 0.159128 0.550329 -0.243735
C52   C     C_R   0.340872 0.493316 0.949671 -0.243735
C53   C     C_R   0.506699 0.340873 0.949670 -0.243732
C54   C     C_R   0.659128 0.506689 0.949685 -0.243731
C55   C     C_R   0.493311 0.659127 0.949677 -0.243740
C56   C     C_R   0.659127 0.493303 0.050331 -0.243733
C57   C     C_R   0.731646 0.017272 0.456919 0.562749
C58   C     C_R   0.493309 0.340872 0.050314 -0.243732
C59   C     C_R   0.340873 0.506689 0.050322 -0.243740
C60   C     C_R   0.506684 0.659128 0.050329 -0.243735
C61   C     C_R   0.822898 0.000002 0.499996 -0.009150
C62   C     C_R   0.000005 0.822897 0.499990 -0.009160
C63   C     C_R   0.177102 0.999996 0.500009 -0.009163
C64   C     C_R   0.999998 0.177102 0.500003 -0.009150
C65   C     C_R   0.322898 0.500002 0.999997 -0.009151
C66   C     C_R   0.500004 0.322898 0.999990 -0.009163
C67   C     C_R   0.677102 0.499996 0.000010 -0.009163
C68   C     C_R   0.017279 0.268347 0.456916 0.562649
C69   C     C_R   0.499998 0.677102 0.000003 -0.009150
C70   C     C_R   0.894797 0.000002 0.499998 -0.337838
C71   C     C_R   0.000003 0.894796 0.499996 -0.337840
C72   C     C_R   0.105204 0.999998 0.500003 -0.337828
C73   C     C_R   0.999998 0.105203 0.500002 -0.337838
C74   C     C_R   0.394797 0.500001 0.999998 -0.337837
C75   C     C_R   0.500002 0.394796 0.999997 -0.337827
C76   C     C_R   0.605204 0.499998 0.000003 -0.337828
C77   C     C_R   0.499998 0.605203 0.000002 -0.337838
C78   C     C_R   0.767337 0.982756 0.543075 -0.260741
C79   C     C_R   0.231653 0.482721 0.043084 0.562652
C80   C     C_R   0.017255 0.767330 0.543047 -0.260747
C81   C     C_R   0.232664 0.017243 0.543091 -0.260731
C82   C     C_R   0.982760 0.232670 0.543077 -0.260748
C83   C     C_R   0.232669 0.982755 0.456941 -0.260745
C84   C     C_R   0.982748 0.767336 0.456919 -0.260733
C85   C     C_R   0.767330 0.017240 0.456923 -0.260748
C86   C     C_R   0.017243 0.232663 0.456925 -0.260741
C87   C     C_R   0.267337 0.482756 0.043075 -0.260740
C88   C     C_R   0.517246 0.267331 0.043058 -0.260744
C89   C     C_R   0.732664 0.517245 0.043089 -0.260732
C90   C     C_R   0.517278 0.231647 0.043060 0.562761
C91   C     C_R   0.482760 0.732670 0.043077 -0.260748
C92   C     C_R   0.732669 0.482753 0.956943 -0.260745
C93   C     C_R   0.482757 0.267336 0.956909 -0.260732
C94   C     C_R   0.267330 0.517240 0.956923 -0.260748
C95   C     C_R   0.517243 0.732663 0.956925 -0.260741
C96   C     C_3   0.679803 0.946329 0.438930 -0.377344
C97   C     C_3   0.660463 0.917540 0.407784 -0.251751
C98   C     C_3   0.685484 0.892083 0.380828 -0.880804
C99   C     C_3   0.053629 0.679799 0.438823 -0.377346
C100  C     C_3   0.082357 0.660458 0.407527 -0.251742
C101  C     C_R   0.768347 0.517282 0.043099 0.562632
C102  C     C_3   0.107766 0.685477 0.380447 -0.880804
C103  C     C_3   0.320191 0.053663 0.438932 -0.377344
C104  C     C_3   0.339528 0.082450 0.407782 -0.251751
C105  C     C_3   0.314505 0.107905 0.380826 -0.880798
C106  C     C_3   0.946345 0.320195 0.438900 -0.377348
C107  C     C_3   0.917593 0.339534 0.407657 -0.251749
C108  C     C_3   0.892163 0.314512 0.380634 -0.880809
C109  C     C_3   0.320200 0.946357 0.561141 -0.377348
C110  C     C_3   0.339541 0.917617 0.592407 -0.251748
C111  C     C_3   0.314521 0.892197 0.619459 -0.880803
C112  C     C_R   0.999999 0.567172 0.499999 1.002964
C113  C     C_R   0.482728 0.768354 0.043080 0.562748
C114  C     C_3   0.946349 0.679808 0.561097 -0.377340
C115  C     C_3   0.917569 0.660471 0.592265 -0.251748
C116  C     C_3   0.892120 0.685494 0.619239 -0.880800
C117  C     C_3   0.679805 0.053655 0.561100 -0.377348
C118  C     C_3   0.660466 0.082407 0.592343 -0.251748
C119  C     C_3   0.685488 0.107837 0.619366 -0.880808
C120  C     C_3   0.053671 0.320197 0.561070 -0.377343
C121  C     C_3   0.082460 0.339537 0.592216 -0.251750
C122  C     C_3   0.107917 0.314516 0.619172 -0.880806
C123  C     C_3   0.179803 0.446329 0.938930 -0.377346
C124  C     C_R   0.768353 0.482721 0.956942 0.562763
C125  C     C_3   0.160463 0.417540 0.907783 -0.251750
C126  C     C_3   0.185484 0.392083 0.880827 -0.880806
C127  C     C_3   0.553642 0.179800 0.938857 -0.377349
C128  C     C_3   0.582382 0.160459 0.907590 -0.251747
C129  C     C_3   0.607801 0.185478 0.880537 -0.880803
C130  C     C_3   0.820191 0.553660 0.938925 -0.377343
C131  C     C_3   0.839528 0.582446 0.907771 -0.251752
C132  C     C_3   0.814505 0.607899 0.880811 -0.880800
C133  C     C_3   0.446344 0.820195 0.938900 -0.377348
C134  C     C_3   0.417593 0.839534 0.907657 -0.251748
C135  C     C_R   0.482720 0.231653 0.956900 0.562635
C136  C     C_3   0.392163 0.814512 0.880634 -0.880806
C137  C     C_3   0.820200 0.446360 0.061150 -0.377347
C138  C     C_3   0.839541 0.417623 0.092424 -0.251747
C139  C     C_3   0.814522 0.392207 0.119483 -0.880804
C140  C     C_3   0.446338 0.179809 0.061069 -0.377344
C141  C     C_3   0.417551 0.160472 0.092220 -0.251751
C142  C     C_3   0.392096 0.185495 0.119176 -0.880799
C143  C     C_3   0.179805 0.553655 0.061100 -0.377344
C144  C     C_3   0.160466 0.582407 0.092344 -0.251751
C145  C     C_3   0.185488 0.607837 0.119367 -0.880813
C146  C     C_R   0.231646 0.517272 0.956920 0.562750
C147  C     C_3   0.553671 0.820197 0.061070 -0.377344
C148  C     C_3   0.582460 0.839537 0.092216 -0.251750
C149  C     C_3   0.607917 0.814516 0.119172 -0.880804
C150  C     C_R   0.517279 0.768347 0.956916 0.562651
C151  C     C_R   0.713830 0.999996 0.500003 -0.174837
C152  C     C_R   0.999998 0.713830 0.499976 -0.174837
C153  C     C_R   0.286169 0.000002 0.500022 -0.174839
C154  C     C_R   0.000004 0.286169 0.499996 -0.174837
C155  C     C_R   0.213830 0.499996 0.000004 -0.174839
C156  C     C_R   0.432828 0.000000 0.500001 1.002940
C157  C     C_R   0.499997 0.213831 0.999978 -0.174838
C158  C     C_R   0.786169 0.500002 0.000022 -0.174838
C159  C     C_R   0.500004 0.786169 0.999996 -0.174837
C160  C     C_R   0.785328 0.999999 0.499998 -0.009002
C161  C     C_R   0.000003 0.785327 0.499985 -0.009013
C162  C     C_R   0.214672 0.999998 0.500014 -0.009018
C163  C     C_R   0.000001 0.214672 0.500002 -0.009003
C164  C     C_R   0.285328 0.499999 0.999998 -0.009002
C165  C     C_R   0.500002 0.285328 0.999986 -0.009018
C166  C     C_R   0.714672 0.499997 0.000014 -0.009018
C167  C     C_R   0.000000 0.432828 0.499999 1.002926
C168  C     C_R   0.500001 0.714672 0.000002 -0.009002
C169  C     C_R   0.658580 0.973744 0.470031 0.033789
C170  C     C_R   0.026233 0.658577 0.469967 0.033791
C171  C     C_R   0.341417 0.026253 0.470038 0.033789
C172  C     C_R   0.973755 0.341419 0.470009 0.033786
C173  C     C_R   0.341422 0.973761 0.530016 0.033788
C174  C     C_R   0.973753 0.658582 0.529974 0.033793
C175  C     C_R   0.658581 0.026245 0.529990 0.033786
C176  C     C_R   0.026256 0.341420 0.529969 0.033788
C177  C     C_R   0.158580 0.473744 0.970031 0.033789
C178  C     C_R   0.067172 0.500000 0.000000 1.002927
C179  C     C_R   0.526239 0.158578 0.969983 0.033788
C180  C     C_R   0.841417 0.526251 0.970035 0.033791
C181  C     C_R   0.473755 0.841419 0.970010 0.033786
C182  C     C_R   0.841422 0.473762 0.030020 0.033789
C183  C     C_R   0.473748 0.158583 0.029962 0.033789
C184  C     C_R   0.158581 0.526245 0.029991 0.033787
C185  C     C_R   0.526256 0.841420 0.029969 0.033789
C186  C     C_R   0.622462 0.974321 0.470300 0.526459
C187  C     C_R   0.025663 0.622460 0.470257 0.526445
C188  C     C_R   0.377535 0.025676 0.470302 0.526456
C189  C     C_R   0.499999 0.067172 0.999999 1.002941
C190  C     C_R   0.974327 0.377537 0.470288 0.526457
C191  C     C_R   0.377540 0.974332 0.529729 0.526452
C192  C     C_R   0.974330 0.622464 0.529709 0.526447
C193  C     C_R   0.622463 0.025673 0.529712 0.526458
C194  C     C_R   0.025679 0.377538 0.529700 0.526457
C195  C     C_R   0.122462 0.474321 0.970300 0.526457
C196  C     C_R   0.525668 0.122460 0.970270 0.526451
C197  C     C_R   0.877535 0.525674 0.970300 0.526453
C198  C     C_R   0.474327 0.877537 0.970288 0.526459
C199  C     C_R   0.877540 0.474333 0.029733 0.526451
C200  C     C_R   0.932828 0.500000 0.000001 1.002946
C201  C     C_R   0.474325 0.122465 0.029698 0.526456
C202  C     C_R   0.122463 0.525673 0.029712 0.526457
C203  C     C_R   0.525679 0.877538 0.029700 0.526457
C204  C     C_R   0.604740 0.999998 0.500004 -0.339935
C205  C     C_R   0.999998 0.604739 0.499989 -0.339918
C206  C     C_R   0.395260 0.000002 0.500010 -0.339929
C207  C     C_R   0.000002 0.395260 0.499996 -0.339933
C208  C     C_R   0.104740 0.499998 0.000004 -0.339934
C209  C     C_R   0.499998 0.104740 0.999990 -0.339927
C210  C     C_R   0.895260 0.500002 0.000010 -0.339927
C211  C     C_R   0.500000 0.932828 0.999999 1.002927
C212  C     C_R   0.500002 0.895260 0.999996 -0.339934
C213  C     C_R   0.676214 0.999995 0.500008 0.018410
C214  C     C_R   0.999994 0.676214 0.499972 0.018409
C215  C     C_R   0.323785 0.000005 0.500025 0.018410
C216  C     C_R   0.000005 0.323786 0.499992 0.018410
C217  C     C_R   0.176214 0.499995 0.000008 0.018409
C218  C     C_R   0.499995 0.176214 0.999974 0.018410
C219  C     C_R   0.823785 0.500005 0.000026 0.018410
C220  C     C_R   0.500005 0.823786 0.999992 0.018410
C221  C     C_R   0.000001 0.932471 0.499999 0.936325
C222  C     C_R   0.731653 0.982721 0.543084 0.562650
C223  C     C_R   0.067529 0.999999 0.500001 0.936338
C224  C     C_R   1.000000 0.067529 0.500001 0.936331
C225  C     C_R   0.932471 0.000000 0.499999 0.936326
C226  C     C_R   0.500001 0.432471 0.999999 0.936342
C227  C     C_R   0.567529 0.499999 0.000001 0.936340
C228  C     C_R   0.499999 0.567529 0.000001 0.936330
C229  C     C_R   0.432471 0.500000 0.999999 0.936331
C230  C     C_R   0.500000 0.000000 0.609363 0.895913
C231  C     C_R   0.000000 0.500000 0.609363 0.895950
C232  C     C_R   0.500000 1.000000 0.390637 0.895942
F1    F     F_    0.893036 0.986130 0.399969 -0.610585
F2    F     F_    0.513893 0.393038 0.899977 -0.610597
F3    F     F_    0.606964 0.513883 0.899982 -0.610588
F4    F     F_    0.486126 0.606962 0.899974 -0.610585
F5    F     F_    0.606962 0.486111 0.100024 -0.610596
F6    F     F_    0.486113 0.393036 0.100016 -0.610591
F7    F     F_    0.393038 0.513874 0.100026 -0.610584
F8    F     F_    0.513870 0.606964 0.100031 -0.610589
F9    F     F_    0.714428 0.965851 0.584797 -0.642785
F10   F     F_    0.034166 0.714415 0.584747 -0.642766
F11   F     F_    0.285573 0.034153 0.584813 -0.642790
F12   F     F_    0.013866 0.893038 0.399966 -0.610589
F13   F     F_    0.965859 0.285585 0.584790 -0.642771
F14   F     F_    0.285583 0.965852 0.415231 -0.642768
F15   F     F_    0.965829 0.714427 0.415206 -0.642790
F16   F     F_    0.714415 0.034141 0.415210 -0.642771
F17   F     F_    0.034149 0.285572 0.415203 -0.642784
F18   F     F_    0.214428 0.465851 0.084797 -0.642786
F19   F     F_    0.534149 0.214417 0.084768 -0.642768
F20   F     F_    0.785573 0.534157 0.084809 -0.642789
F21   F     F_    0.465859 0.785585 0.084790 -0.642771
F22   F     F_    0.785584 0.465848 0.915235 -0.642767
F23   F     F_    0.106964 0.013888 0.399984 -0.610593
F24   F     F_    0.465846 0.214427 0.915188 -0.642790
F25   F     F_    0.214415 0.534141 0.915210 -0.642771
F26   F     F_    0.534149 0.785572 0.915203 -0.642785
F27   F     F_    0.603879 0.950842 0.440777 -0.671237
F28   F     F_    0.049142 0.603873 0.440739 -0.671251
F29   F     F_    0.396116 0.049150 0.440770 -0.671240
F30   F     F_    0.950841 0.396120 0.440779 -0.671240
F31   F     F_    0.396125 0.950849 0.559239 -0.671243
F32   F     F_    0.950860 0.603884 0.559252 -0.671247
F33   F     F_    0.603880 0.049159 0.559221 -0.671241
F34   F     F_    0.986126 0.106962 0.399974 -0.610584
F35   F     F_    0.049159 0.396121 0.559222 -0.671236
F36   F     F_    0.103879 0.450842 0.940777 -0.671236
F37   F     F_    0.549151 0.103874 0.940760 -0.671243
F38   F     F_    0.896116 0.549148 0.940765 -0.671242
F39   F     F_    0.450841 0.896120 0.940779 -0.671241
F40   F     F_    0.896126 0.450851 0.059245 -0.671245
F41   F     F_    0.450850 0.103884 0.059231 -0.671241
F42   F     F_    0.103880 0.549159 0.059222 -0.671242
F43   F     F_    0.549158 0.896121 0.059222 -0.671236
F44   F     F_    0.106962 0.986106 0.600022 -0.610592
F45   F     F_    0.986141 0.893035 0.600027 -0.610582
F46   F     F_    0.893038 0.013874 0.600026 -0.610587
F47   F     F_    0.013870 0.106964 0.600031 -0.610590
F48   F     F_    0.393036 0.486130 0.899969 -0.610590
H1    H     H_    0.827236 0.987666 0.410610 0.190278
H2    H     H_    0.512354 0.327237 0.910612 0.190281
H3    H     H_    0.571212 0.144442 0.873107 0.274585
H4    H     H_    0.540380 0.196360 0.907202 0.221369
H5    H     H_    0.566091 0.196927 0.970600 0.220098
H6    H     H_    0.797749 0.594641 0.849489 0.273280
H7    H     H_    0.798259 0.620093 0.913996 0.273919
H8    H     H_    0.829119 0.628328 0.858423 0.267671
H9    H     H_    0.855967 0.596769 0.938297 0.273898
H10   H     H_    0.855547 0.571326 0.873247 0.274651
H11   H     H_    0.803662 0.540409 0.907211 0.221350
H12   H     H_    0.803035 0.566071 0.970664 0.220111
H13   H     H_    0.672765 0.512342 0.910629 0.190282
H14   H     H_    0.405450 0.797747 0.849360 0.273286
H15   H     H_    0.379931 0.798275 0.913792 0.273919
H16   H     H_    0.371760 0.829127 0.858178 0.267662
H17   H     H_    0.403241 0.855978 0.938136 0.273961
H18   H     H_    0.428750 0.855546 0.873160 0.274592
H19   H     H_    0.459599 0.803636 0.907234 0.221350
H20   H     H_    0.433906 0.803067 0.970651 0.220114
H21   H     H_    0.797760 0.405509 0.150745 0.273287
H22   H     H_    0.798280 0.379960 0.086343 0.273917
H23   H     H_    0.829139 0.371815 0.141960 0.267661
H24   H     H_    0.487663 0.672762 0.910617 0.190278
H25   H     H_    0.855982 0.403256 0.061959 0.273970
H26   H     H_    0.855558 0.428796 0.126904 0.274583
H27   H     H_    0.803639 0.459625 0.092802 0.221369
H28   H     H_    0.803074 0.433909 0.029408 0.220096
H29   H     H_    0.405352 0.202251 0.150500 0.273279
H30   H     H_    0.379903 0.201741 0.085989 0.273919
H31   H     H_    0.371666 0.170881 0.141561 0.267673
H32   H     H_    0.403229 0.144033 0.061692 0.273899
H33   H     H_    0.428668 0.144453 0.126745 0.274652
H34   H     H_    0.459587 0.196338 0.092785 0.221350
H35   H     H_    0.672763 0.487649 0.089389 0.190281
H36   H     H_    0.433928 0.196965 0.029329 0.220112
H37   H     H_    0.202253 0.594549 0.150641 0.273286
H38   H     H_    0.201725 0.620068 0.086210 0.273921
H39   H     H_    0.170873 0.628239 0.141824 0.267660
H40   H     H_    0.144022 0.596759 0.061865 0.273961
H41   H     H_    0.144454 0.571249 0.126840 0.274591
H42   H     H_    0.196364 0.540400 0.092766 0.221350
H43   H     H_    0.196932 0.566094 0.029350 0.220113
H44   H     H_    0.594663 0.797762 0.150498 0.273279
H45   H     H_    0.620107 0.798268 0.085985 0.273922
H46   H     H_    0.487654 0.327235 0.089370 0.190282
H47   H     H_    0.628349 0.829132 0.141553 0.267674
H48   H     H_    0.596779 0.855974 0.061686 0.273906
H49   H     H_    0.571344 0.855557 0.126741 0.274647
H50   H     H_    0.540427 0.803667 0.092787 0.221342
H51   H     H_    0.566079 0.803041 0.029326 0.220120
H52   H     H_    0.327238 0.512337 0.089383 0.190278
H53   H     H_    0.512333 0.672764 0.089389 0.190278
H54   H     H_    0.780928 0.969035 0.576238 0.194452
H55   H     H_    0.030987 0.780917 0.576205 0.194454
H56   H     H_    0.219072 0.030966 0.576253 0.194457
H57   H     H_    0.012331 0.827237 0.410603 0.190280
H58   H     H_    0.969037 0.219083 0.576243 0.194449
H59   H     H_    0.219081 0.969030 0.423776 0.194456
H60   H     H_    0.969018 0.780927 0.423765 0.194456
H61   H     H_    0.780916 0.030962 0.423757 0.194450
H62   H     H_    0.030965 0.219072 0.423762 0.194453
H63   H     H_    0.280928 0.469035 0.076238 0.194453
H64   H     H_    0.530971 0.280919 0.076223 0.194456
H65   H     H_    0.719072 0.530969 0.076249 0.194457
H66   H     H_    0.469037 0.719083 0.076243 0.194449
H67   H     H_    0.719082 0.469026 0.923780 0.194456
H68   H     H_    0.172765 0.012346 0.410630 0.190282
H69   H     H_    0.469033 0.280928 0.923748 0.194457
H70   H     H_    0.280916 0.530963 0.923757 0.194450
H71   H     H_    0.530965 0.719072 0.923761 0.194453
H72   H     H_    0.702238 0.905337 0.349501 0.273279
H73   H     H_    0.701732 0.879893 0.414015 0.273922
H74   H     H_    0.670868 0.871651 0.358446 0.267674
H75   H     H_    0.644026 0.903221 0.438314 0.273906
H76   H     H_    0.644443 0.928656 0.373258 0.274647
H77   H     H_    0.696333 0.959573 0.407213 0.221342
H78   H     H_    0.696959 0.933921 0.470673 0.220120
H79   H     H_    0.987663 0.172762 0.410617 0.190278
H80   H     H_    0.094455 0.702238 0.349194 0.273287
H81   H     H_    0.120023 0.701719 0.413576 0.273916
H82   H     H_    0.128152 0.670860 0.357953 0.267658
H83   H     H_    0.096734 0.644018 0.437980 0.273975
H84   H     H_    0.071175 0.644441 0.373056 0.274574
H85   H     H_    0.040359 0.696363 0.407182 0.221369
H86   H     H_    0.066089 0.696923 0.470560 0.220096
H87   H     H_    0.297749 0.094649 0.349502 0.273279
H88   H     H_    0.298259 0.120098 0.414013 0.273920
H89   H     H_    0.329119 0.128335 0.358441 0.267672
H90   H     H_    0.172763 0.987645 0.589387 0.190281
H91   H     H_    0.355967 0.096771 0.438310 0.273898
H92   H     H_    0.355547 0.071333 0.373256 0.274652
H93   H     H_    0.303662 0.040414 0.407216 0.221350
H94   H     H_    0.303034 0.066072 0.470672 0.220112
H95   H     H_    0.905450 0.297747 0.349360 0.273286
H96   H     H_    0.879931 0.298275 0.413792 0.273920
H97   H     H_    0.871761 0.329127 0.358178 0.267661
H98   H     H_    0.903241 0.355978 0.438136 0.273961
H99   H     H_    0.928750 0.355546 0.373160 0.274592
H100  H     H_    0.959599 0.303636 0.407234 0.221350
H101  H     H_    0.987679 0.827234 0.589379 0.190281
H102  H     H_    0.933906 0.303067 0.470651 0.220114
H103  H     H_    0.297760 0.905497 0.650724 0.273287
H104  H     H_    0.298280 0.879954 0.586315 0.273917
H105  H     H_    0.329138 0.871803 0.641930 0.267662
H106  H     H_    0.355982 0.903253 0.561939 0.273969
H107  H     H_    0.355557 0.928786 0.626891 0.274585
H108  H     H_    0.303640 0.959619 0.592797 0.221369
H109  H     H_    0.303073 0.933909 0.529397 0.220098
H110  H     H_    0.905384 0.702249 0.650555 0.273280
H111  H     H_    0.879920 0.701741 0.586060 0.273919
H112  H     H_    0.827238 0.012337 0.589383 0.190278
H113  H     H_    0.871696 0.670880 0.641636 0.267670
H114  H     H_    0.903240 0.644033 0.561746 0.273900
H115  H     H_    0.928694 0.644452 0.626783 0.274648
H116  H     H_    0.959605 0.696338 0.592804 0.221348
H117  H     H_    0.933933 0.696964 0.529364 0.220112
H118  H     H_    0.702253 0.094550 0.650640 0.273285
H119  H     H_    0.701725 0.120069 0.586208 0.273919
H120  H     H_    0.670873 0.128239 0.641822 0.267662
H121  H     H_    0.644022 0.096759 0.561864 0.273961
H122  H     H_    0.644454 0.071250 0.626840 0.274592
H123  H     H_    0.012333 0.172764 0.589390 0.190278
H124  H     H_    0.696364 0.040401 0.592766 0.221351
H125  H     H_    0.696932 0.066094 0.529349 0.220114
H126  H     H_    0.094663 0.297762 0.650498 0.273279
H127  H     H_    0.120107 0.298268 0.585985 0.273922
H128  H     H_    0.128349 0.329132 0.641553 0.267674
H129  H     H_    0.096779 0.355974 0.561686 0.273906
H130  H     H_    0.071344 0.355557 0.626741 0.274647
H131  H     H_    0.040427 0.303667 0.592787 0.221342
H132  H     H_    0.066079 0.303040 0.529326 0.220120
H133  H     H_    0.202238 0.405337 0.849501 0.273279
H134  H     H_    0.327236 0.487667 0.910610 0.190278
H135  H     H_    0.201732 0.379893 0.914014 0.273922
H136  H     H_    0.170868 0.371652 0.858446 0.267674
H137  H     H_    0.144026 0.403221 0.938313 0.273906
H138  H     H_    0.144443 0.428656 0.873258 0.274647
H139  H     H_    0.196333 0.459574 0.907213 0.221342
H140  H     H_    0.196959 0.433921 0.970673 0.220121
H141  H     H_    0.594501 0.202240 0.849272 0.273287
H142  H     H_    0.620045 0.201719 0.913680 0.273918
H143  H     H_    0.628195 0.170862 0.858065 0.267661
H144  H     H_    0.596747 0.144018 0.938058 0.273969
O1    O     O_R   0.550900 0.028770 0.500040 -0.574469
O2    O     O_R   0.471230 0.050900 0.000040 -0.574511
O3    O     O_R   0.949100 0.471230 0.000040 -0.574472
O4    O     O_R   0.528770 0.949100 0.000040 -0.574497
O5    O     O_R   0.949100 0.528770 0.999960 -0.574513
O6    O     O_R   0.528770 0.050900 0.999960 -0.574470
O7    O     O_R   0.050900 0.471230 0.999960 -0.574497
O8    O     O_R   0.471230 0.949100 0.999960 -0.574469
O9    O     O_R   0.499990 0.028770 0.582790 -0.608302
O10   O     O_R   0.971230 0.499990 0.582790 -0.608285
O11   O     O_R   0.500010 0.971230 0.582790 -0.608290
O12   O     O_R   0.971230 0.550900 0.500040 -0.574523
O13   O     O_R   0.028770 0.500010 0.582790 -0.608289
O14   O     O_R   0.500010 0.028770 0.417210 -0.608287
O15   O     O_R   0.028770 0.499990 0.417210 -0.608287
O16   O     O_R   0.499990 0.971230 0.417210 -0.608288
O17   O     O_R   0.971230 0.500010 0.417210 -0.608304
O18   O     O_R   0.999990 0.528770 0.082790 -0.608303
O19   O     O_R   0.471230 0.999990 0.082790 -0.608287
O20   O     O_R   0.000010 0.471230 0.082790 -0.608289
O21   O     O_R   0.528770 0.000010 0.082790 -0.608288
O22   O     O_R   0.000010 0.528770 0.917210 -0.608287
O23   O     O_R   0.449100 0.971230 0.500040 -0.574470
O24   O     O_R   0.528770 0.999990 0.917210 -0.608290
O25   O     O_R   0.999990 0.471230 0.917210 -0.608288
O26   O     O_R   0.471230 0.000010 0.917210 -0.608302
O27   O     O_R   0.999980 0.949050 0.546640 -0.564109
O28   O     O_R   0.050950 0.999980 0.546640 -0.564127
O29   O     O_R   0.000020 0.050950 0.546640 -0.564127
O30   O     O_R   0.949050 0.000020 0.546640 -0.564121
O31   O     O_R   0.000020 0.949050 0.453360 -0.564124
O32   O     O_R   0.949050 0.999980 0.453360 -0.564121
O33   O     O_R   0.999980 0.050950 0.453360 -0.564113
O34   O     O_R   0.028770 0.449100 0.500040 -0.574498
O35   O     O_R   0.050950 0.000020 0.453360 -0.564126
O36   O     O_R   0.499980 0.449050 0.046640 -0.564119
O37   O     O_R   0.550950 0.499980 0.046640 -0.564131
O38   O     O_R   0.500020 0.550950 0.046640 -0.564127
O39   O     O_R   0.449050 0.500020 0.046640 -0.564113
O40   O     O_R   0.500020 0.449050 0.953360 -0.564132
O41   O     O_R   0.449050 0.499980 0.953360 -0.564127
O42   O     O_R   0.499980 0.550950 0.953360 -0.564114
O43   O     O_R   0.550950 0.500020 0.953360 -0.564117
O44   O     O_R   0.449100 0.028770 0.499960 -0.574510
O45   O     O_R   0.028770 0.550900 0.499960 -0.574480
O46   O     O_R   0.550900 0.971230 0.499960 -0.574498
O47   O     O_R   0.971230 0.449100 0.499960 -0.574469
O48   O     O_R   0.050900 0.528770 0.000040 -0.574469
Zn1   Zn    Zn3+2 0.500000 0.038410 0.500000 1.080820
Zn2   Zn    Zn3+2 0.000000 1.000000 0.437580 1.186740
Zn3   Zn    Zn3+2 0.500000 0.500000 0.062420 1.186737
Zn4   Zn    Zn3+2 0.500000 0.500000 0.937580 1.186737
Zn5   Zn    Zn3+2 0.961590 0.500000 0.500000 1.080816
Zn6   Zn    Zn3+2 0.500000 0.961590 0.500000 1.080832
Zn7   Zn    Zn3+2 0.038410 0.500000 0.500000 1.080831
Zn8   Zn    Zn3+2 0.000000 0.538410 0.000000 1.080816
Zn9   Zn    Zn3+2 0.461590 0.000000 0.000000 1.080820
Zn10  Zn    Zn3+2 1.000000 0.461590 0.000000 1.080832
Zn11  Zn    Zn3+2 0.538410 0.000000 0.000000 1.080832
Zn12  Zn    Zn3+2 0.000000 1.000000 0.562420 1.186740

loop_
_geom_bond_atom_site_label_1
_geom_bond_atom_site_label_2
_ccdc_geom_bond_type
C68   F17   S    
C71   C221  S    
C98   H73   S    
C95   C168  A    
C79   C87   A    
C114  C115  S    
C53   H2    S    
C211  O8    A    
C7    O26   A    
O16   Zn6   S    
O8    Zn9   S    
O27   Zn12  S    
C44   C62   A    
C148  H49   S    
C224  O29   A    
C109  C173  S    
C103  H94   S    
C106  C107  S    
C143  C144  S    
C97   H76   S    
O42   Zn4   S    
C116  H113  S    
C201  C209  A    
C110  C111  S    
C139  H22   S    
C36   C53   A    
C144  H40   S    
C41   C74   A    
C138  H25   S    
C125  H137  S    
C38   C55   A    
C178  C208  S    
C170  C187  A    
C28   F23   S    
C102  H82   S    
C189  O2    A    
C126  H136  S    
C4    C12   S    
C156  C206  S    
C178  O48   A    
C27   F12   S    
C29   F34   S    
C104  C105  S    
C24   C154  A    
C110  H106  S    
C2    C152  A    
C187  F28   S    
C11   C20   T    
C140  C183  S    
C40   C58   A    
C150  C159  A    
C182  C199  A    
C183  C201  A    
C140  C141  S    
C149  H45   S    
C47   C64   A    
C119  H118  S    
C42   F8    S    
C48   C63   A    
C145  H37   S    
C152  C214  S    
C225  O30   A    
C173  C191  A    
C191  C206  A    
C192  F32   S    
C156  O44   A    
C39   C56   A    
C107  H99   S    
C108  H97   S    
C141  H32   S    
C91   H66   S    
C10   C232  S    
C196  F37   S    
C195  F36   S    
C137  H28   S    
C136  H14   S    
C46   C84   A    
C122  H126  S    
C33   C73   A    
C101  C158  A    
C145  H38   S    
C101  F20   S    
C116  H110  S    
C42   C60   A    
C99   H85   S    
C153  C215  S    
C27   C71   A    
C43   C61   A    
C16   C25   T    
C49   C62   A    
C177  C195  A    
C89   C101  A    
C143  H42   S    
C106  C172  S    
C51   C64   A    
C177  C217  A    
C144  C145  S    
O25   Zn10  S    
C54   C67   A    
C169  C213  A    
C68   C154  A    
C8    C17   T    
C151  C222  A    
C17   C25   S    
C143  C184  S    
C130  C131  S    
C105  H87   S    
C69   C168  S    
C96   H77   S    
O45   Zn7   S    
C108  H95   S    
C59   H52   S    
C157  C218  S    
C57   C85   A    
C149  H44   S    
C60   H53   S    
C47   H79   S    
C79   C155  A    
C114  C174  S    
C20   C21   S    
C77   C228  S    
C159  C220  S    
C151  C213  S    
C73   C224  S    
C86   C163  A    
C172  C216  A    
C1    C204  S    
C175  C193  A    
C84   C161  A    
C201  F41   S    
C64   C163  S    
O40   Zn4   S    
C84   H60   S    
C135  C157  A    
C104  H91   S    
C192  C205  A    
C127  H5    S    
C147  C148  S    
C51   H123  S    
C128  C129  S    
C97   C98   S    
C145  H39   S    
C102  H80   S    
C230  O11   A    
C225  O32   A    
C221  O27   A    
C29   C47   A    
C30   C48   A    
C173  C215  A    
C112  C205  S    
C111  H103  S    
C55   H24   S    
C62   C161  S    
C5    O19   A    
C36   F2    S    
C115  C116  S    
C191  F31   S    
C134  H18   S    
C228  O38   A    
C148  H48   S    
C100  H83   S    
C40   F6    S    
C144  H41   S    
C136  H16   S    
C43   H1    S    
C27   C44   A    
C195  C208  A    
C130  H11   S    
C107  C108  S    
C85   C160  A    
C135  F24   S    
C198  C212  A    
C106  H102  S    
C139  H23   S    
C129  H141  S    
C211  O4    A    
C117  C175  S    
C31   C71   A    
C87   C164  A    
C182  C219  A    
C50   H112  S    
C200  O5    A    
C103  C171  S    
C123  H140  S    
C24   F13   S    
C149  H47   S    
C74   C229  S    
C1    O1    A    
C120  C176  S    
C37   F3    S    
C121  C122  S    
C131  H9    S    
O36   Zn3   S    
C3    C11   S    
C154  C216  S    
C121  H130  S    
C61   C160  S    
C128  H144  S    
C32   C70   A    
C188  F29   S    
C6    O25   A    
C124  C158  A    
C127  H4    S    
C36   C75   A    
C119  H119  S    
C118  H122  S    
C186  F27   S    
C187  C205  A    
C142  H31   S    
C95   C150  A    
C113  C159  A    
C2    F10   S    
O23   Zn6   S    
C55   C69   A    
C130  C180  S    
C78   C222  A    
C133  C181  S    
C83   C162  A    
C85   H61   S    
C96   C169  S    
C79   F18   S    
C39   F5    S    
C120  C121  S    
C26   F1    S    
C230  O9    A    
C66   C165  S    
O41   Zn4   S    
O34   Zn7   S    
C83   H59   S    
C35   C153  A    
O9    Zn1   S    
C98   H74   S    
C194  C207  A    
C30   C72   A    
C127  C128  S    
C90   F19   S    
O39   Zn3   S    
C143  H43   S    
C14   C22   T    
C90   C157  A    
C117  C118  S    
C59   C65   A    
O5    Zn8   S    
C103  H93   S    
C60   C69   A    
C81   H56   S    
C57   C151  A    
C226  O36   A    
C97   H75   S    
C133  H20   S    
C52   H134  S    
C89   C166  A    
C139  H21   S    
C52   C65   A    
C109  H109  S    
C138  H26   S    
C190  C207  A    
C42   C77   A    
C88   C165  A    
C50   C61   A    
C58   H46   S    
C180  C219  A    
C229  O39   A    
C120  H131  S    
C174  C192  A    
C94   C146  A    
C30   F44   S    
C185  C220  A    
O32   Zn2   S    
C46   C152  A    
C115  H114  S    
C123  C177  S    
C6    O22   A    
C109  H108  S    
O28   Zn12  S    
C133  C134  S    
C110  H107  S    
O35   Zn2   S    
C99   C170  S    
C28   C72   A    
C112  O45   A    
C221  O31   A    
C188  C206  A    
O7    Zn10  S    
C171  C188  A    
C184  C217  A    
O26   Zn9   S    
C169  C186  A    
C92   C124  A    
C38   F4    S    
C123  C125  S    
C132  H7    S    
C13   C81   A    
C142  H29   S    
C123  H139  S    
C81   C162  A    
C87   H63   S    
C93   H69   S    
C197  C210  A    
O46   Zn6   S    
C202  F42   S    
C95   H71   S    
C146  C155  A    
C158  C219  S    
C86   H62   S    
C137  H27   S    
C171  C215  A    
C122  H127  S    
C76   C227  S    
O21   Zn11  S    
O31   Zn2   S    
C31   C49   A    
C57   F16   S    
O47   Zn5   S    
C222  F9    S    
O30   Zn12  S    
C179  C196  A    
C113  F21   S    
C141  H33   S    
C124  F22   S    
C1    O46   A    
C35   C83   A    
C117  H125  S    
C93   C135  A    
C231  O13   A    
C72   C223  S    
C200  C210  S    
C174  C214  A    
O6    Zn11  S    
O48   Zn8   S    
O43   Zn4   S    
C96   H78   S    
C108  H96   S    
C211  C212  S    
O3    Zn10  S    
C10   C19   T    
C140  H34   S    
C126  H135  S    
C13   C153  A    
C5    C14   S    
C34   C74   A    
C117  H124  S    
C196  C209  A    
C7    C16   S    
C37   C76   A    
C88   C90   A    
C125  C126  S    
C26   C70   A    
C131  C132  S    
C94   C164  A    
C32   F46   S    
C41   F7    S    
C4    O18   A    
C94   H70   S    
C45   H68   S    
O18   Zn8   S    
C35   F14   S    
C104  H92   S    
C194  F35   S    
O33   Zn2   S    
C232  O14   A    
C223  O28   A    
C170  C214  A    
C38   C77   A    
O38   Zn3   S    
C33   C51   A    
O20   Zn10  S    
C40   C75   A    
C9    C231  S    
C199  C210  A    
C172  C190  A    
C185  C203  A    
C127  C179  S    
C189  C209  S    
C109  C110  S    
C3    O17   A    
C155  C217  S    
C100  H84   S    
C138  C139  S    
C223  O35   A    
C82   C163  A    
C130  H12   S    
C103  C104  S    
C88   H64   S    
C176  C194  A    
C197  F38   S    
C99   H86   S    
C199  F40   S    
C98   H72   S    
C63   C162  S    
O1    Zn1   S    
O13   Zn7   S    
C68   C86   A    
C70   C225  S    
C147  H51   S    
C13   F11   S    
C147  C185  S    
C226  O40   A    
C193  C204  A    
C175  C213  A    
C105  H88   S    
C115  H115  S    
C46   F15   S    
O22   Zn8   S    
O19   Zn9   S    
O4    Zn11  S    
C7    O24   A    
C29   C73   A    
O44   Zn1   S    
C89   H65   S    
C140  H36   S    
C200  O3    A    
C80   H55   S    
C48   H90   S    
C126  H133  S    
C24   C82   A    
C118  C119  S    
C180  C197  A    
C229  O41   A    
C6    C15   S    
C8    C230  S    
C58   C66   A    
C118  H121  S    
C132  H6    S    
C125  H138  S    
C178  O7    A    
C176  C216  A    
O10   Zn5   S    
C56   H35   S    
C4    O20   A    
C15   C23   T    
C5    O21   A    
C202  C208  A    
C181  C220  A    
C181  C198  A    
C232  O16   A    
C26   C43   A    
O24   Zn11  S    
C28   C45   A    
C184  C202  A    
O11   Zn6   S    
C18   C23   S    
C156  O23   A    
C91   C168  A    
O12   Zn5   S    
C19   C22   S    
C148  C149  S    
C41   C59   A    
C106  H100  S    
C111  H104  S    
C129  H143  S    
C134  C136  S    
C137  C182  S    
C107  H98   S    
C203  F43   S    
C3    O15   A    
C12   C21   T    
C45   C63   A    
C189  O6    A    
C91   C113  A    
C134  H17   S    
C167  C207  S    
O29   Zn12  S    
C136  H15   S    
C9    C18   T    
C99   C100  S    
C167  O47   A    
C231  O10   A    
C96   C97   S    
C100  C102  S    
C133  H19   S    
C186  C204  A    
C116  H111  S    
C39   C76   A    
C53   C66   A    
C32   C50   A    
C198  F39   S    
C121  H129  S    
C129  H142  S    
C37   C54   A    
C67   C166  S    
C105  H89   S    
C44   H57   S    
C183  C218  A    
C179  C218  A    
C203  C212  A    
C78   H54   S    
C34   C52   A    
C120  H132  S    
C49   H101  S    
C102  H81   S    
C33   F47   S    
C167  O34   A    
C78   C160  A    
C34   F48   S    
O37   Zn3   S    
C131  H10   S    
C111  H105  S    
C75   C226  S    
C82   H58   S    
C92   H67   S    
C114  H116  S    
C56   C67   A    
C137  C138  S    
C112  O12   A    
C193  F33   S    
C190  F30   S    
C224  O33   A    
C227  O43   A    
C141  C142  S    
C150  F26   S    
C119  H120  S    
C132  H8    S    
C227  O37   A    
C65   C164  S    
C142  H30   S    
C147  H50   S    
C31   F45   S    
C80   C161  A    
C2    C80   A    
C54   H13   S    
C93   C165  A    
C114  H117  S    
C92   C166  A    
O14   Zn1   S    
O15   Zn7   S    
O2    Zn9   S    
C146  F25   S    
O17   Zn5   S    
C128  H3    S    
C228  O42   A    
C122  H128  S    
