data_mof_unit_pretest_1205.cif
_audit_creation_date              2012-12-11T15:09:41-0500
_audit_creation_method            fapswitch 2.2
_symmetry_space_group_name_H-M    P1
_symmetry_Int_Tables_number       1
_space_group_crystal_system       monoclinic
_cell_length_a                    20.811323
_cell_length_b                    7.125066
_cell_length_c                    14.024087
_cell_angle_alpha                 90.0
_cell_angle_beta                  97.815894
_cell_angle_gamma                 90.0
_cell_volume                      2060.2019457

loop_
_atom_site_label
_atom_site_type_symbol
_atom_type_description
_atom_site_fract_x
_atom_site_fract_y
_atom_site_fract_z
_atom_type_partial_charge
O1    O     O_R   0.447130 0.507140 0.597350 -0.539987
O2    O     O_R   0.552870 0.007140 0.402650 -0.539987
O3    O     O_R   0.578910 0.181280 0.586990 -0.538132
O4    O     O_R   0.421090 0.681280 0.413010 -0.538131
C1    C     C_R   0.604467 0.344525 0.607426 0.739427
C2    C     C_R   0.395533 0.844525 0.392574 0.739427
O5    O     O_R   0.449230 0.177860 0.608640 -0.537809
O6    O     O_R   0.550770 0.677860 0.391360 -0.537809
O7    O     O_R   0.422260 0.000770 0.424450 -0.532130
O8    O     O_R   0.577740 0.500770 0.575550 -0.532130
C3    C     C_R   0.433212 0.346162 0.635408 0.705702
C4    C     C_R   0.566788 0.846162 0.364592 0.705702
O9    O     O_3   0.491310 0.336980 0.439550 -0.373884
O10   O     O_3   0.508690 0.836980 0.560450 -0.373885
V1    V     V_3+5 0.501610 0.064760 0.511210 1.508723
V2    V     V_3+5 0.498390 0.564760 0.488790 1.508723
C5    C     C_R   0.615640 0.806521 0.114932 -0.084742
C6    C     C_R   0.384360 0.306521 0.885068 -0.084742
C7    C     C_R   0.604940 0.851517 0.284087 -0.087206
C8    C     C_R   0.395060 0.351517 0.715913 -0.087206
C9    C     C_R   0.919330 0.844095 0.307151 -0.106533
C10   C     C_R   0.080670 0.344095 0.692849 -0.106533
C11   C     C_R   0.880758 0.808599 0.379789 -0.075743
C12   C     C_R   0.119242 0.308599 0.620211 -0.075743
C13   C     C_R   0.812976 0.788872 0.356462 -0.091431
C14   C     C_R   0.187024 0.288872 0.643538 -0.091431
C15   C     C_R   0.782020 0.829382 0.261080 0.033765
C16   C     C_R   0.217980 0.329382 0.738920 0.033766
C17   C     C_R   0.821959 0.850415 0.187497 0.048835
C18   C     C_R   0.178041 0.350415 0.812503 0.048835
C19   C     C_R   0.712993 0.840875 0.235135 0.069145
C20   C     C_R   0.287007 0.340874 0.764865 0.069145
C21   C     C_R   0.684590 0.829284 0.136475 0.041599
C22   C     C_R   0.315410 0.329284 0.863525 0.041599
C23   C     C_R   0.726475 0.844524 0.064659 -0.072344
C24   C     C_R   0.273525 0.344523 0.935341 -0.072344
C25   C     C_R   0.793185 0.860746 0.091030 -0.215124
C26   C     C_R   0.206815 0.360744 0.908970 -0.215124
C27   C     C_R   0.671668 0.873376 0.304937 -0.197975
C28   C     C_R   0.328332 0.373376 0.695063 -0.197974
C29   C     C_R   0.576627 0.812604 0.189723 -0.091080
C30   C     C_R   0.423373 0.312603 0.810277 -0.091080
C31   C     C_R   0.890353 0.857449 0.210863 -0.119868
C32   C     C_R   0.109647 0.357449 0.789137 -0.119868
H1    H     H_    0.690624 0.916761 0.377075 0.123915
H2    H     H_    0.309376 0.416762 0.622925 0.123915
H3    H     H_    0.822976 0.878395 0.033959 0.117307
H4    H     H_    0.177024 0.378394 0.966042 0.117307
C33   C     C_1   0.166619 0.857112 0.168226 -0.149487
C34   C     C_1   0.833381 0.357112 0.831774 -0.149487
C35   C     C_1   0.219054 0.854914 0.219300 0.048292
C36   C     C_1   0.780946 0.354914 0.780700 0.048292
C37   C     C_1   0.280810 0.853540 0.279294 0.067588
C38   C     C_1   0.719190 0.353540 0.720706 0.067588
C39   C     C_1   0.333174 0.851214 0.330551 -0.118460
C40   C     C_1   0.666825 0.351214 0.669448 -0.118459
O11   O     O_R   0.922300 0.202240 0.924350 -0.534892
O12   O     O_R   0.077700 0.702240 0.075650 -0.534892
O13   O     O_R   0.050780 0.535130 0.891350 -0.539133
O14   O     O_R   0.949220 0.035130 0.108650 -0.539133
C41   C     C_R   0.067947 0.368003 0.865737 0.698409
C42   C     C_R   0.932053 0.868003 0.134263 0.698410
O15   O     O_R   0.921100 0.531560 0.912990 -0.535558
O16   O     O_R   0.078900 0.031560 0.087010 -0.535558
O17   O     O_R   0.947120 0.708470 0.097370 -0.538907
O18   O     O_R   0.052880 0.208470 0.902630 -0.538907
C43   C     C_R   0.895867 0.363544 0.893478 0.725828
C44   C     C_R   0.104133 0.863544 0.106522 0.725827
O19   O     O_3   0.008710 0.375800 0.060400 -0.373018
O20   O     O_3   0.991290 0.875800 0.939600 -0.373018
V3    V     V_3+5 0.998380 0.648080 0.988790 1.475930
V4    V     V_3+5 0.001620 0.148080 0.011210 1.475930
C45   C     C_1   0.507016 0.782971 0.169656 0.324613
N1    N     N_1   0.451573 0.759288 0.153687 -0.324471
C46   C     C_1   0.492984 0.282971 0.830344 0.324612
N2    N     N_1   0.548427 0.259288 0.846313 -0.324470
C47   C     C_1   0.704150 0.859350 0.962632 0.321515
N3    N     N_1   0.687079 0.871931 0.880796 -0.314013
C48   C     C_1   0.295850 0.359346 0.037368 0.321514
N4    N     N_1   0.312920 0.371925 0.119205 -0.314014
C49   C     C_1   0.583614 0.765106 0.018703 0.346662
N5    N     N_1   0.557341 0.731492 0.942459 -0.309076
C50   C     C_1   0.416386 0.265107 0.981297 0.346662
N6    N     N_1   0.442659 0.231494 0.057541 -0.309076
C51   C     C_1   0.989409 0.854206 0.330524 0.326812
N7    N     N_1   0.045271 0.861593 0.348979 -0.323100
C52   C     C_1   0.010591 0.354207 0.669476 0.326811
N8    N     N_1   0.954729 0.361594 0.651021 -0.323100
C53   C     C_1   0.778566 0.697745 0.427182 0.303734
N9    N     N_1   0.751460 0.624405 0.483678 -0.350285
C54   C     C_1   0.221434 0.197745 0.572818 0.303734
N10   N     N_1   0.248540 0.124405 0.516322 -0.350284
C55   C     C_1   0.911227 0.786976 0.478717 0.359776
N11   N     N_1   0.935545 0.770517 0.557524 -0.313189
C56   C     C_1   0.088773 0.286976 0.521283 0.359775
N12   N     N_1   0.064455 0.270517 0.442476 -0.313188

loop_
_geom_bond_atom_site_label_1
_geom_bond_atom_site_label_2
_ccdc_geom_bond_type
C52   N8    T    
C55   N11   T    
C33   C44   S    
C15   C17   A    
C45   N1    T    
C1    C40   S    
C56   N12   T    
O1    C3    A    
C2    C39   S    
O2    C4    A    
C2    O7    A    
C49   N5    T    
C47   N3    T    
O5    C3    A    
C30   C46   S    
O16   C44   A    
C23   C25   A    
C12   C14   A    
C6    C30   A    
C51   N7    T    
C8    C28   A    
O12   V3    S    
O14   V4    S    
C18   C26   A    
O14   C42   A    
O19   V3    S    
C9    C31   A    
C41   O18   A    
C10   C32   A    
O18   V4    S    
C16   C18   A    
C33   C35   T    
C34   C36   T    
C19   C21   A    
O20   V3    S    
C25   H3    S    
C5    C49   S    
C34   C43   S    
C26   H4    S    
C27   H1    S    
C11   C13   A    
O6    V2    S    
C17   C31   A    
C18   C32   A    
C5    C21   A    
O11   C43   A    
C36   C38   S    
O15   C43   A    
C37   C39   T    
C38   C40   T    
C3    C8    S    
O13   C41   A    
C15   C19   A    
C16   C20   A    
O4    C2    A    
C12   C56   S    
C54   N10   T    
C14   C54   S    
O17   V3    S    
C23   C47   S    
C9    C51   S    
C11   C55   S    
C35   C37   S    
C20   C22   A    
O4    V2    S    
O19   V4    S    
C28   H2    S    
C46   N2    T    
C50   N6    T    
O6    C4    A    
C6    C50   S    
O1    V2    S    
C10   C52   S    
O2    V1    S    
C6    C22   A    
C7    C27   A    
O12   C44   A    
O15   V3    S    
C9    C11   A    
C10   C12   A    
C20   C28   A    
O3    V1    S    
C42   O17   A    
C13   C53   S    
O3    C1    A    
C24   C48   S    
C8    C30   A    
C32   C41   S    
C13   C15   A    
C14   C16   A    
C24   C26   A    
O7    V1    S    
C1    O8    A    
O8    V2    S    
C4    C7    S    
O5    V1    S    
C21   C23   A    
C19   C27   A    
C22   C24   A    
O16   V4    S    
O11   V4    S    
C5    C29   A    
C29   C45   S    
C48   N4    T    
O9    V2    S    
C17   C25   A    
O10   V1    S    
O20   V4    S    
C53   N9    T    
C7    C29   A    
C31   C42   S    
O13   V3    S    
