data_mof_unit_pretest_1827.cif
_audit_creation_date              2013-03-05T16:34:58-0500
_audit_creation_method            fapswitch 2.2
_symmetry_space_group_name_H-M    P1
_symmetry_Int_Tables_number       1
_space_group_crystal_system       triclinic
_cell_length_a                    15.021838
_cell_length_b                    14.172616
_cell_length_c                    17.547228
_cell_angle_alpha                 90.002835
_cell_angle_beta                  90.247799
_cell_angle_gamma                 90.000931
_cell_volume                      3735.74781594

loop_
_atom_site_label
_atom_site_type_symbol
_atom_site_description
_atom_site_fract_x
_atom_site_fract_y
_atom_site_fract_z
_atom_type_partial_charge
O1    O     O_R   0.369060 0.579480 0.500010 -0.561377
O2    O     O_R   0.630940 0.420520 0.499990 -0.529019
O3    O     O_R   0.630940 0.579480 0.499990 -0.562551
O4    O     O_R   0.369060 0.420520 0.500010 -0.527498
C1    C     C_R   0.327692 0.499990 0.500035 0.968400
C2    C     C_R   0.672297 0.499990 0.500123 0.965013
O5    O     O_R   0.500000 0.579510 0.389120 -0.585570
O6    O     O_R   0.500000 0.420490 0.610880 -0.608096
O7    O     O_R   0.500000 0.579510 0.610880 -0.586428
O8    O     O_R   0.500000 0.420490 0.389120 -0.608176
C3    C     C_R   0.500921 0.500001 0.353350 0.951534
C4    C     C_R   0.501086 0.500000 0.646653 0.947273
Zn1   Zn    Zn3+2 0.500000 0.606140 0.500000 1.105366
Zn2   Zn    Zn3+2 0.500000 0.393860 0.500000 1.114855
C5    C     C_R   0.523535 0.585901 0.847479 0.631952
C6    C     C_R   0.524942 0.414214 0.152804 0.635245
C7    C     C_R   0.525581 0.585822 0.152881 0.630522
C8    C     C_R   0.528139 0.414364 0.847142 0.635065
C9    C     C_R   0.512265 0.585846 0.769027 -0.218422
C10   C     C_R   0.513710 0.414177 0.231181 -0.234998
C11   C     C_R   0.514354 0.585856 0.231255 -0.227743
C12   C     C_R   0.516881 0.414239 0.768686 -0.234162
H1    H     H_    0.506398 0.652764 0.739633 0.239022
H2    H     H_    0.509517 0.347198 0.260679 0.222075
H3    H     H_    0.510708 0.652836 0.260804 0.236719
H4    H     H_    0.514811 0.347260 0.738993 0.223992
C13   C     C_R   0.508845 0.499999 0.729253 -0.233191
C14   C     C_R   0.508410 0.500015 0.270789 -0.231266
C15   C     C_R   0.531489 0.500180 0.886088 -0.216625
C16   C     C_R   0.530970 0.500019 0.114114 -0.215980
C17   C     C_1   0.536440 0.500106 0.966312 0.211590
C18   C     C_1   0.536268 0.500053 0.033944 0.211497
C19   C     C_R   0.093106 0.577271 0.471276 -0.232188
C20   C     C_R   0.906478 0.422726 0.470941 -0.223825
C21   C     C_R   0.906473 0.576752 0.532012 -0.232334
C22   C     C_R   0.093862 0.422666 0.531357 -0.224227
H5    H     H_    0.057120 0.636643 0.447346 0.197861
H6    H     H_    0.942160 0.363559 0.446615 0.198993
H7    H     H_    0.942159 0.635924 0.556591 0.197944
H8    H     H_    0.058478 0.363230 0.555572 0.198970
C23   C     C_R   0.184993 0.577491 0.470509 0.600252
C24   C     C_R   0.814585 0.422581 0.470229 0.611144
C25   C     C_R   0.814574 0.577068 0.531719 0.599964
C26   C     C_R   0.185755 0.422415 0.531013 0.610711
C27   C     C_R   0.231707 0.499943 0.500469 -0.345826
C28   C     C_R   0.768261 0.499919 0.500639 -0.344793
C29   C     C_R   0.047865 0.499963 0.501569 -0.021992
C30   C     C_R   0.952098 0.499737 0.501655 -0.022116
C31   C     C_R   0.432236 0.105383 0.463229 -0.320091
C32   C     C_R   0.543293 0.894613 0.557840 -0.322323
C33   C     C_R   0.567790 0.105403 0.536771 -0.318876
C34   C     C_R   0.456775 0.894607 0.442129 -0.322218
H9    H     H_    0.377137 0.070377 0.435270 0.202935
H10   H     H_    0.576220 0.929609 0.604879 0.204668
H11   H     H_    0.622894 0.070414 0.564735 0.203325
H12   H     H_    0.423882 0.929603 0.395074 0.204222
C35   C     C_R   0.434051 0.204474 0.463066 0.706557
C36   C     C_R   0.543470 0.795523 0.556278 0.702268
C37   C     C_R   0.565953 0.204494 0.536943 0.705182
C38   C     C_R   0.456587 0.795516 0.443690 0.702493
N1    N     N_R   0.500000 0.252470 0.500000 -0.210954
N2    N     N_R   0.500000 0.747530 0.500000 -0.216160
C39   C     C_R   0.500021 0.053407 0.499996 0.034046
C40   C     C_R   0.500026 0.946597 0.499990 0.032821
F1    F     F_    0.525648 0.669155 0.885788 -0.584180
F2    F     F_    0.529025 0.330946 0.114657 -0.586972
F3    F     F_    0.530291 0.669101 0.114813 -0.585464
F4    F     F_    0.534763 0.331137 0.885118 -0.586592
F5    F     F_    0.227763 0.652271 0.438993 -0.584610
F6    F     F_    0.771402 0.348130 0.438285 -0.604799
F7    F     F_    0.771367 0.651573 0.563231 -0.584077
F8    F     F_    0.229311 0.347587 0.561992 -0.604792
F9    F     F_    0.369250 0.252499 0.425703 -0.601885
F10   F     F_    0.587451 0.747501 0.611551 -0.590305
F11   F     F_    0.630726 0.252540 0.574329 -0.603173
F12   F     F_    0.412717 0.747485 0.388349 -0.588600

loop_
_geom_bond_atom_site_label_1
_geom_bond_atom_site_label_2
_geom_bond_distance
_ccdc_geom_bond_type
C36   N2    1.363308 A    
C31   C39   1.410705 A    
C32   C40   1.410695 A    
C21   H7    1.083793 S    
C20   C24   1.380398 A    
O3    C2    1.286534 A    
C5    C9    1.386267 A    
C32   H10   1.080914 S    
O1    C1    1.286593 A    
C8    F4    1.358229 S    
C5    F1    1.358247 S    
C24   F6    1.358368 S    
C31   C35   1.404640 A    
C22   C29   1.395603 A    
C38   N2    1.363322 A    
C24   C28   1.404828 A    
C35   F9    1.354691 S    
O7    Zn1   1.981921 S    
C34   C38   1.404649 A    
Zn1   N2    2.003866 S    
C17   C18   1.186765 T    
O6    Zn2   1.981884 S    
C21   C25   1.380491 A    
O3    Zn1   2.002927 S    
C6    C10   1.386326 A    
C8    C12   1.386314 A    
C7    C16   1.395877 A    
O2    C2    1.286264 A    
C21   C30   1.395698 A    
O7    C4    1.289994 A    
C5    C15   1.395919 A    
C33   C37   1.404656 A    
C7    F3    1.358237 S    
C37   N1    1.363306 A    
C4    C13   1.453586 S    
C32   C36   1.404626 A    
C10   H2    1.083202 S    
C22   H8    1.083793 S    
C33   C39   1.410702 A    
C34   C40   1.410701 A    
C10   C14   1.403486 A    
Zn2   N1    2.003866 S    
C1    C27   1.441914 S    
C38   F12   1.354642 S    
C19   H5    1.083821 S    
C9    H1    1.083024 S    
O5    C3    1.289935 A    
C29   C30   1.438616 S    
O6    C4    1.289953 A    
C8    C15   1.395862 A    
C6    F2    1.358240 S    
C11   C14   1.403522 A    
C12   C13   1.403567 A    
O8    Zn2   1.981923 S    
C19   C29   1.395721 A    
C22   C26   1.380452 A    
O1    Zn1   2.002918 S    
C37   F11   1.354697 S    
C9    C13   1.403427 A    
C26   C27   1.405098 A    
C36   F10   1.354587 S    
C23   F5    1.358285 S    
C11   H3    1.083134 S    
C25   F7    1.358329 S    
C2    C28   1.441548 S    
C20   H6    1.083821 S    
O4    C1    1.286376 A    
C35   N1    1.363289 A    
C19   C23   1.380448 A    
C15   C17   1.409351 S    
C16   C18   1.409356 S    
C3    C14   1.453574 S    
C31   H9    1.080911 S    
C26   F8    1.358400 S    
C33   H11   1.080930 S    
O4    Zn2   2.002930 S    
O2    Zn2   2.002915 S    
C25   C28   1.404846 A    
C7    C11   1.386273 A    
O8    C3    1.290025 A    
C39   C40   1.513776 S    
O5    Zn1   1.981886 S    
C20   C30   1.395733 A    
C12   H4    1.083218 S    
C23   C27   1.404863 A    
C6    C16   1.395911 A    
C34   H12   1.080929 S    
