data_mof_unit_pretest_1024.cif
_audit_creation_date              2012-10-26T19:50:04-0400
_audit_creation_method            fapswitch 2.2
_symmetry_space_group_name_H-M    P1
_symmetry_Int_Tables_number       1
_space_group_crystal_system       triclinic
_cell_length_a                    15.090689
_cell_length_b                    13.884675
_cell_length_c                    10.772255
_cell_angle_alpha                 90.093408
_cell_angle_beta                  90.356897
_cell_angle_gamma                 89.954587
_cell_volume                      2257.05570307

loop_
_atom_site_label
_atom_site_type_symbol
_atom_type_description
_atom_site_fract_x
_atom_site_fract_y
_atom_site_fract_z
_atom_type_partial_charge
C1    C     C_R   0.330091 0.499964 0.499567 0.539809
C2    C     C_R   0.952272 0.499675 0.499183 0.047744
C3    C     C_R   0.548384 0.107567 0.588480 -0.154229
C4    C     C_R   0.451563 0.107533 0.411285 -0.152699
C5    C     C_R   0.550589 0.209567 0.584916 0.379461
C6    C     C_R   0.449021 0.209439 0.415592 0.382128
C7    C     C_R   0.500160 0.054489 0.499633 -0.059355
C8    C     C_R   0.428702 0.891950 0.449594 -0.136521
C9    C     C_R   0.571515 0.891929 0.549925 -0.135103
C10   C     C_R   0.430371 0.790643 0.449581 0.051218
C11   C     C_R   0.569694 0.790627 0.550308 0.047933
C12   C     C_R   0.670258 0.499950 0.499964 0.524800
C13   C     C_R   0.500145 0.945177 0.499655 0.034481
C14   C     C_R   0.503418 0.499966 0.262554 0.534388
C15   C     C_R   0.503263 0.500052 0.737484 0.539798
C16   C     C_R   0.643231 0.603851 0.130680 -0.102249
C17   C     C_R   0.643029 0.603839 0.871648 -0.106590
C18   C     C_R   0.707711 0.654968 0.066222 -0.121700
C19   C     C_R   0.707596 0.654976 0.937123 -0.130868
C20   C     C_R   0.575703 0.553224 0.934980 0.027722
C21   C     C_R   0.575806 0.553184 0.066266 0.022022
C22   C     C_R   0.509960 0.499714 0.128927 0.000382
C23   C     C_R   0.233892 0.499574 0.497893 -0.035212
C24   C     C_R   0.509750 0.499879 0.871169 0.010371
C25   C     C_R   0.448585 0.444009 0.063431 -0.149334
C26   C     C_R   0.448498 0.444054 0.935480 -0.149595
C27   C     C_R   0.095471 0.561870 0.416803 0.304638
C28   C     C_R   0.906166 0.584693 0.529202 0.300748
C29   C     C_R   0.187787 0.564374 0.421892 -0.120214
C30   C     C_R   0.813743 0.584660 0.527421 -0.126654
C31   C     C_3   0.034206 0.571306 0.224596 0.005538
C32   C     C_3   0.971776 0.630434 0.142677 -0.244931
C33   C     C_3   0.948200 0.576491 0.023351 -0.496569
C34   C     C_R   0.767111 0.499852 0.500080 -0.037116
C35   C     C_3   0.962455 0.678362 0.683369 0.002448
C36   C     C_3   0.015671 0.769671 0.710241 -0.243201
C37   C     C_3   0.030654 0.784033 0.849213 -0.494697
C38   C     C_3   0.687418 0.236637 0.678537 0.004488
C39   C     C_3   0.711756 0.199178 0.807762 -0.267737
C40   C     C_3   0.810607 0.177024 0.817934 -0.489608
C41   C     C_3   0.309161 0.238594 0.334086 0.004063
C42   C     C_3   0.276956 0.203039 0.207213 -0.273835
C43   C     C_3   0.177215 0.184938 0.206891 -0.488093
C44   C     C_R   0.187838 0.432873 0.570236 -0.166631
C45   C     C_R   0.813618 0.415036 0.472730 -0.163923
C46   C     C_R   0.095788 0.433262 0.570271 -0.193625
C47   C     C_R   0.905637 0.414963 0.472545 -0.194983
C48   C     C_R   0.049208 0.498568 0.495367 0.042669
Cu1   Cu    Cu3+1 0.500000 0.596430 0.500000 0.925377
Cu2   Cu    Cu3+1 0.500000 0.403570 0.500000 1.032323
H1    H     H_    0.398992 0.402193 0.111777 0.142335
H2    H     H_    0.778951 0.349017 0.449894 0.130232
H3    H     H_    0.060767 0.383377 0.629609 0.111368
H4    H     H_    0.940625 0.349210 0.449508 0.109396
H5    H     H_    0.583540 0.070694 0.662007 0.104411
H6    H     H_    0.415736 0.070862 0.338057 0.105720
H7    H     H_    0.375244 0.751631 0.409348 0.123730
H8    H     H_    0.624728 0.751618 0.590783 0.112142
H9    H     H_    0.002177 0.500299 0.242639 0.125488
H10   H     H_    0.097502 0.559300 0.174110 0.118474
H11   H     H_    0.909977 0.646027 0.194630 0.179387
H12   H     H_    0.398881 0.402146 0.886209 0.121282
H13   H     H_    0.003876 0.699967 0.118929 0.167968
H14   H     H_    0.009073 0.558973 0.970401 0.137952
H15   H     H_    0.904760 0.622175 0.964477 0.139245
H16   H     H_    0.912291 0.508843 0.045164 0.154948
H17   H     H_    0.999460 0.615398 0.721703 0.130132
H18   H     H_    0.896932 0.684252 0.729987 0.109854
H19   H     H_    0.080969 0.764809 0.663398 0.182611
H20   H     H_    0.979488 0.833048 0.672461 0.168808
H21   H     H_    0.966192 0.789879 0.897926 0.142585
H22   H     H_    0.068613 0.851442 0.865209 0.146907
H23   H     H_    0.370874 0.927695 0.411803 0.085256
H24   H     H_    0.069176 0.722842 0.888201 0.151850
H25   H     H_    0.223350 0.614550 0.363544 0.119027
H26   H     H_    0.778849 0.650839 0.548613 0.120324
H27   H     H_    0.725786 0.303501 0.662023 0.161099
H28   H     H_    0.708531 0.183850 0.606139 0.096914
H29   H     H_    0.694174 0.254353 0.878400 0.181480
H30   H     H_    0.673593 0.132688 0.827779 0.156842
H31   H     H_    0.829351 0.120496 0.749846 0.143985
H32   H     H_    0.826223 0.150554 0.912798 0.147505
H33   H     H_    0.850155 0.243034 0.800368 0.144872
H34   H     H_    0.629368 0.927660 0.587675 0.083754
H35   H     H_    0.273039 0.306024 0.356715 0.164068
H36   H     H_    0.291016 0.185129 0.407036 0.101266
H37   H     H_    0.292567 0.257833 0.135502 0.164384
H38   H     H_    0.311810 0.135171 0.182797 0.158719
H39   H     H_    0.160152 0.128952 0.276294 0.148089
H40   H     H_    0.155901 0.159504 0.113610 0.145876
H41   H     H_    0.140913 0.252436 0.228906 0.140865
H42   H     H_    0.647945 0.603364 0.230814 0.140766
H43   H     H_    0.647639 0.603298 0.771583 0.126142
H44   H     H_    0.758557 0.693895 0.116685 0.109891
H45   H     H_    0.758358 0.693855 0.887402 0.092995
H46   H     H_    0.223145 0.382137 0.628745 0.125349
N1    N     N_R   0.500000 0.258690 0.500000 -0.202358
N2    N     N_R   0.500000 0.741330 0.500000 -0.220835
O1    O     O_R   0.371460 0.581430 0.500010 -0.509760
O2    O     O_3   0.951167 0.669279 0.553775 -0.534998
O3    O     O_3   0.596286 0.261165 0.674925 -0.530413
O4    O     O_3   0.400777 0.260627 0.328064 -0.538056
O5    O     O_R   0.628540 0.581430 0.499990 -0.534619
O6    O     O_R   0.371470 0.418560 0.500010 -0.490045
O7    O     O_R   0.628530 0.418560 0.499990 -0.486341
O8    O     O_R   0.500000 0.581450 0.319650 -0.513158
O9    O     O_R   0.500000 0.581450 0.680350 -0.510050
O10   O     O_R   0.500010 0.418580 0.319650 -0.450399
O11   O     O_R   0.499990 0.418580 0.680350 -0.450387
O12   O     O_3   0.050729 0.622234 0.336029 -0.534152

loop_
_geom_bond_atom_site_label_1
_geom_bond_atom_site_label_2
_ccdc_geom_bond_type
C27   C48   A    
C7    C13   S    
C37   H24   S    
Cu2   O6    S    
C8    C13   A    
C27   C29   A    
C41   C42   S    
C15   O11   A    
C35   C36   S    
C1    O1    A    
C33   H15   S    
Cu1   O9    S    
C41   H36   S    
C43   H39   S    
C11   N2    A    
C23   C29   A    
C36   C37   S    
C24   C26   A    
C32   H11   S    
C38   O3    S    
C3    C7    A    
C38   C39   S    
C31   H9    S    
C17   C20   A    
C41   O4    S    
C18   C19   A    
C15   O9    A    
C10   N2    A    
C9    C13   A    
Cu1   N2    S    
C3    H5    S    
C20   C24   A    
C27   O12   S    
C36   H20   S    
C22   C25   A    
Cu2   O7    S    
C11   H8    S    
C28   O2    S    
C14   O10   A    
C21   C22   A    
C4    H6    S    
Cu2   O10   S    
C40   H33   S    
C4    C7    A    
C44   C46   A    
C33   H16   S    
C46   C48   A    
C45   C47   A    
C5    O3    S    
C43   H40   S    
C30   C34   A    
C6    N1    A    
C40   H32   S    
C10   H7    S    
C12   O5    A    
C4    C6    A    
C39   C40   S    
C38   H28   S    
C45   H2    S    
C2    C48   S    
C25   C26   A    
Cu2   O11   S    
C43   H41   S    
C23   C44   A    
C39   H29   S    
C31   H10   S    
C25   H1    S    
C44   H46   S    
Cu1   O1    S    
C30   H26   S    
C31   C32   S    
C35   H17   S    
C34   C45   A    
C9    C11   A    
C1    O6    A    
C47   H4    S    
C16   C18   A    
C15   C24   S    
C5    N1    A    
C1    C23   S    
C37   H21   S    
C18   H44   S    
C17   H43   S    
C42   C43   S    
C12   C34   S    
C35   O2    S    
C19   H45   S    
C36   H19   S    
Cu2   N1    S    
C40   H31   S    
C32   H13   S    
C3    C5    A    
Cu1   O5    S    
C16   C21   A    
C16   H42   S    
Cu1   O8    S    
C29   H25   S    
C38   H27   S    
C2    C47   A    
C41   H35   S    
C32   C33   S    
C14   C22   S    
C28   C30   A    
C26   H12   S    
C39   H30   S    
C12   O7    A    
C35   H18   S    
C33   H14   S    
C46   H3    S    
C8    H23   S    
C17   C19   A    
C31   O12   S    
C6    O4    S    
C9    H34   S    
C14   O8    A    
C42   H38   S    
C20   C21   A    
C8    C10   A    
Cu1   Cu2   S    
C37   H22   S    
C2    C28   A    
C42   H37   S    
