data_mof_unit_pretest_627.cif
_audit_creation_date              2012-12-11T14:01:37-0500
_audit_creation_method            fapswitch 2.2
_symmetry_space_group_name_H-M    P1
_symmetry_Int_Tables_number       1
_space_group_crystal_system       triclinic
_cell_length_a                    19.180414
_cell_length_b                    11.253334
_cell_length_c                    18.928263
_cell_angle_alpha                 89.225185
_cell_angle_beta                  90.436035
_cell_angle_gamma                 89.934738
_cell_volume                      4085.04951038

loop_
_atom_site_label
_atom_site_type_symbol
_atom_type_description
_atom_site_fract_x
_atom_site_fract_y
_atom_site_fract_z
_atom_type_partial_charge
C1    C     C_R   0.271640 0.041888 0.852722 0.584006
C2    C     C_R   0.014256 0.651791 0.947176 0.302526
C3    C     C_R   0.499491 0.163398 0.020445 0.299526
C4    C     C_R   0.514548 0.151709 0.946628 0.299462
C5    C     C_2   0.285804 0.642795 0.927912 0.016637
C6    C     C_2   0.717810 0.691068 0.065509 -0.063219
C7    C     C_2   0.785387 0.141834 0.927845 0.024541
C8    C     C_2   0.218049 0.189209 0.065466 -0.057000
C9    C     C_2   0.237037 0.575083 0.071451 0.125825
C10   C     C_2   0.755796 0.563578 0.926869 0.246338
C11   C     C_2   0.736961 0.075098 0.071519 0.121653
C12   C     C_R   0.724508 0.037222 0.144491 0.527900
C13   C     C_2   0.256299 0.062568 0.927125 0.248032
C14   C     C_2   0.273728 0.507631 0.026718 -0.180957
C15   C     C_2   0.694115 0.602449 0.950252 -0.058669
C16   C     C_2   0.773430 0.007382 0.026772 -0.192535
C17   C     C_2   0.194159 0.098314 0.950765 -0.076727
C18   C     C_2   0.270433 0.531555 0.949941 0.264733
C19   C     C_2   0.680587 0.612678 0.026726 0.188585
C20   C     C_2   0.769730 0.030829 0.949971 0.272345
C21   C     C_2   0.180847 0.110009 0.027151 0.191047
C22   C     C_2   0.488420 0.828170 0.572977 -0.033926
C23   C     C_R   0.771429 0.542382 0.852528 0.579905
C24   C     C_2   0.489159 0.833885 0.415376 -0.034945
C25   C     C_2   0.988409 0.328170 0.572972 -0.031931
C26   C     C_2   0.989157 0.333887 0.415374 -0.034956
C27   C     C_2   0.478876 0.737681 0.455744 -0.132939
C28   C     C_2   0.460747 0.746313 0.529601 -0.131195
C29   C     C_2   0.978864 0.237680 0.455739 -0.132732
C30   C     C_2   0.960738 0.246310 0.529598 -0.132437
C31   C     C_2   0.247396 0.587796 0.582070 0.235049
C32   C     C_2   0.751460 0.590421 0.420056 0.236305
C33   C     C_2   0.747357 0.087731 0.582115 0.235435
C34   C     C_R   0.224464 0.537083 0.144419 0.528335
C35   C     C_2   0.251462 0.090430 0.420056 0.236474
C36   C     C_2   0.251839 0.598007 0.415789 -0.040213
C37   C     C_2   0.748395 0.601357 0.584431 -0.040207
C38   C     C_2   0.751842 0.097950 0.415805 -0.039950
C39   C     C_2   0.248403 0.101354 0.584426 -0.038180
C40   C     C_R   0.470101 0.820693 0.853867 0.597245
C41   C     C_R   0.529071 0.823626 0.146807 0.549961
C42   C     C_R   0.969720 0.320682 0.854074 0.595629
C43   C     C_R   0.028929 0.323618 0.146923 0.549794
C44   C     C_2   0.208370 0.641930 0.464391 0.269527
C45   C     C_R   0.497515 0.059772 0.063529 0.411119
C46   C     C_2   0.792048 0.646938 0.535999 0.274315
C47   C     C_2   0.708382 0.141851 0.464419 0.269593
C48   C     C_2   0.292059 0.146939 0.535999 0.272299
C49   C     C_2   0.237089 0.669504 0.531704 -0.107518
C50   C     C_2   0.763553 0.673454 0.468098 -0.094388
C51   C     C_2   0.737119 0.169419 0.531724 -0.105796
C52   C     C_2   0.263571 0.173460 0.468096 -0.094613
C53   C     C_R   0.277433 0.687351 0.856843 0.605294
C54   C     C_R   0.722570 0.693466 0.143244 0.544960
C55   C     C_R   0.777243 0.186708 0.856909 0.614417
C56   C     C_R   0.528779 0.037554 0.921005 0.411377
C57   C     C_R   0.222628 0.193104 0.143148 0.544717
C58   C     C_R   0.272826 0.045314 0.648520 0.537209
C59   C     C_R   0.727141 0.044064 0.351756 0.545724
C60   C     C_R   0.772824 0.545318 0.648522 0.532692
C61   C     C_R   0.227142 0.544077 0.351751 0.545483
C62   C     C_R   0.467052 0.823173 0.646450 0.560252
C63   C     C_R   0.528843 0.823328 0.350652 0.550992
C64   C     C_R   0.967046 0.323172 0.646447 0.567611
C65   C     C_R   0.028842 0.323329 0.350652 0.550835
C66   C     C_R   0.259111 0.634210 0.649972 0.601250
C67   C     C_R   0.996872 0.559803 0.064021 0.412244
C68   C     C_R   0.740475 0.635072 0.351033 0.584708
C69   C     C_R   0.759098 0.134175 0.649999 0.594174
C70   C     C_R   0.240474 0.135079 0.351035 0.584636
C71   C     C_R   0.496477 0.839014 0.076152 0.060385
C72   C     C_R   0.495971 0.825648 0.927782 0.085111
C73   C     C_R   0.995787 0.339018 0.076546 0.062112
C74   C     C_R   0.994624 0.325811 0.928246 0.045517
C75   C     C_R   0.504992 0.944946 0.034773 -0.041237
C76   C     C_R   0.512625 0.935173 0.960818 -0.012526
C77   C     C_R   0.004037 0.445003 0.035192 -0.030820
C78   C     C_R   0.028125 0.537538 0.921523 0.405950
C79   C     C_R   0.011409 0.435305 0.961251 -0.022567
C80   C     C_R   0.477553 0.727503 0.970433 -0.123127
C81   C     C_R   0.474677 0.736241 0.042865 -0.105999
C82   C     C_R   0.976053 0.227742 0.970865 -0.126182
C83   C     C_R   0.973731 0.236273 0.043343 -0.102376
C84   C     C_R   0.999027 0.663458 0.020962 0.298856
Cr1   Cr    Cr6+3 0.230530 0.836340 0.748870 1.155026
Cr2   Cr    Cr6+3 0.614360 0.677860 0.250770 1.152804
Cr3   Cr    Cr6+3 0.885640 0.177860 0.749230 1.091714
Cr4   Cr    Cr6+3 0.114360 0.177860 0.250770 1.153336
Cr5   Cr    Cr6+3 0.769470 0.836340 0.251130 1.120150
Cr6   Cr    Cr6+3 0.730530 0.336340 0.748870 1.151783
Cr7   Cr    Cr6+3 0.269470 0.336340 0.251130 1.120232
Cr8   Cr    Cr6+3 0.387420 0.989430 0.750820 1.232356
Cr9   Cr    Cr6+3 0.612580 0.989430 0.249180 1.207215
Cr10  Cr    Cr6+3 0.887420 0.489430 0.750820 1.234662
Cr11  Cr    Cr6+3 0.112580 0.489430 0.249180 1.208063
Cr12  Cr    Cr6+3 0.385640 0.677860 0.749230 1.092289
F1    F     F_    0.473738 0.070796 0.130597 -0.530833
F2    F     F_    0.556829 0.025365 0.855851 -0.539030
F3    F     F_    0.973289 0.570827 0.131163 -0.531872
F4    F     F_    0.056635 0.525166 0.856562 -0.537247
H1    H     H_    0.460163 0.644706 0.947825 0.160647
H2    H     H_    0.693244 0.592192 0.571769 0.130348
H3    H     H_    0.807225 0.089952 0.427865 0.122748
H4    H     H_    0.193251 0.092193 0.571761 0.131255
H5    H     H_    0.299491 0.427744 0.045517 0.137057
H6    H     H_    0.650869 0.613784 0.913376 0.141319
H7    H     H_    0.799543 0.927921 0.045652 0.136947
H8    H     H_    0.150466 0.105682 0.914127 0.121173
H9    H     H_    0.316381 0.698510 0.962514 0.081486
H10   H     H_    0.751681 0.751531 0.037645 0.109489
H11   H     H_    0.816136 0.197323 0.962422 0.079086
H12   H     H_    0.457545 0.660206 0.073610 0.171360
H13   H     H_    0.251861 0.249471 0.037322 0.116330
H14   H     H_    0.487719 0.648772 0.435987 0.178925
H15   H     H_    0.427198 0.676031 0.549808 0.176164
H16   H     H_    0.987699 0.148772 0.435979 0.179045
H17   H     H_    0.927192 0.176026 0.549806 0.176055
H18   H     H_    0.475915 0.921470 0.434549 0.212406
H19   H     H_    0.522124 0.898883 0.553878 0.201076
H20   H     H_    0.975920 0.421472 0.434550 0.212298
H21   H     H_    0.022110 0.398886 0.553872 0.201895
H22   H     H_    0.075888 0.797229 0.527172 0.372414
H23   H     H_    0.958493 0.145078 0.948218 0.161717
H24   H     H_    0.951886 0.786471 0.482491 0.384499
H25   H     H_    0.576011 0.297137 0.527294 0.372504
H26   H     H_    0.452032 0.286176 0.482467 0.384674
H27   H     H_    0.182027 0.399754 0.482741 0.333069
H28   H     H_    0.817200 0.405681 0.524038 0.330291
H29   H     H_    0.681966 0.899671 0.482802 0.334188
H30   H     H_    0.317148 0.905669 0.524059 0.330116
H31   H     H_    0.928649 0.964776 0.023271 0.325420
H32   H     H_    0.935810 0.912970 0.855836 0.367613
H33   H     H_    0.429134 0.464603 0.022454 0.325087
H34   H     H_    0.956904 0.160111 0.074153 0.170868
H35   H     H_    0.435870 0.412945 0.855497 0.367769
H36   H     H_    0.137115 0.318740 0.906098 0.363523
H37   H     H_    0.716793 0.441858 0.128411 0.367393
H38   H     H_    0.677111 0.909319 0.794675 0.384435
H39   H     H_    0.216084 0.940301 0.129385 0.366020
H40   H     H_    0.276984 0.799337 0.064644 0.337946
H41   H     H_    0.845669 0.721661 0.970175 0.385541
H42   H     H_    0.777411 0.298939 0.064688 0.338631
H43   H     H_    0.345261 0.222329 0.969444 0.384211
H44   H     H_    0.236400 0.761747 0.546106 0.173061
H45   H     H_    0.764757 0.765768 0.451695 0.172605
H46   H     H_    0.736508 0.261679 0.546094 0.173355
H47   H     H_    0.264798 0.265770 0.451691 0.172550
H48   H     H_    0.307222 0.590039 0.427849 0.122829
O1    O     O_R   0.215090 0.709860 0.828130 -0.365899
O2    O     O_R   0.543740 0.718170 0.330000 -0.513986
O3    O     O_3   0.165635 0.923194 0.131521 -0.381391
O4    O     O_2   0.153744 0.669284 0.968839 -0.255635
O5    O     O_2   0.127546 0.724743 0.088101 -0.157431
O6    O     O_3   0.238745 0.813339 0.030015 -0.479677
O7    O     O_2   0.817306 0.523457 0.059578 -0.271032
O8    O     O_2   0.861645 0.423367 0.955917 -0.338379
O9    O     O_3   0.875873 0.652214 0.962147 -0.501151
O10   O     O_2   0.653680 0.169926 0.969054 -0.257309
O11   O     O_2   0.627869 0.225631 0.088362 -0.155987
O12   O     O_3   0.739218 0.313153 0.030032 -0.477845
O13   O     O_R   0.956260 0.218170 0.670000 -0.515182
O14   O     O_2   0.318195 0.023162 0.059630 -0.269059
O15   O     O_2   0.363001 0.924272 0.955803 -0.343283
O16   O     O_3   0.376021 0.153340 0.962151 -0.500423
O17   O     O_R   0.043740 0.218170 0.330000 -0.514054
O18   O     O_R   0.320940 0.626760 0.674370 -0.485935
O19   O     O_R   0.679060 0.626760 0.325630 -0.473146
O20   O     O_R   0.820940 0.126760 0.674370 -0.485275
O21   O     O_R   0.179060 0.126760 0.325630 -0.473104
O22   O     O_3   0.334530 0.834540 0.749640 -0.365955
O23   O     O_3   0.665470 0.834540 0.250360 -0.366123
O24   O     O_3   0.834530 0.334540 0.749640 -0.365969
O25   O     O_R   0.784910 0.709860 0.171870 -0.406726
O26   O     O_3   0.165470 0.334540 0.250360 -0.365483
O27   O     O_R   0.236990 0.958390 0.823710 -0.523118
O28   O     O_R   0.763010 0.958390 0.176290 -0.535677
O29   O     O_R   0.736990 0.458390 0.823710 -0.524145
O30   O     O_R   0.263010 0.458390 0.176290 -0.535975
O31   O     O_R   0.332380 0.074750 0.830850 -0.408196
O32   O     O_R   0.667620 0.074750 0.169150 -0.429773
O33   O     O_R   0.832380 0.574750 0.830850 -0.408943
O34   O     O_R   0.167620 0.574750 0.169150 -0.429253
O35   O     O_R   0.445800 0.917770 0.825070 -0.420520
O36   O     O_R   0.715090 0.209860 0.828130 -0.357822
O37   O     O_R   0.554200 0.917770 0.174930 -0.451425
O38   O     O_R   0.945800 0.417770 0.825070 -0.414237
O39   O     O_R   0.054200 0.417770 0.174930 -0.451423
O40   O     O_R   0.456410 0.716580 0.829970 -0.550953
O41   O     O_R   0.543590 0.716580 0.170030 -0.480465
O42   O     O_R   0.956410 0.216580 0.829970 -0.550216
O43   O     O_R   0.043590 0.216580 0.170030 -0.480035
O44   O     O_R   0.321080 0.625290 0.822650 -0.498819
O45   O     O_R   0.678920 0.625290 0.177350 -0.446747
O46   O     O_R   0.821080 0.125290 0.822650 -0.497142
O47   O     O_R   0.284910 0.209860 0.171870 -0.407996
O48   O     O_R   0.178920 0.125290 0.177350 -0.447363
O49   O     O_R   0.214930 0.711450 0.668160 -0.495316
O50   O     O_R   0.785070 0.711450 0.331840 -0.499839
O51   O     O_R   0.714930 0.211450 0.668160 -0.496377
O52   O     O_R   0.285070 0.211450 0.331840 -0.499893
O53   O     O_R   0.236850 0.959870 0.675420 -0.520581
O54   O     O_R   0.763150 0.959870 0.324580 -0.512171
O55   O     O_R   0.736850 0.459870 0.675420 -0.520953
O56   O     O_R   0.263150 0.459870 0.324580 -0.512213
O57   O     O_R   0.332230 0.076350 0.670880 -0.420098
O58   O     O_R   0.445660 0.919250 0.676780 -0.439095
O59   O     O_R   0.667770 0.076350 0.329120 -0.413259
O60   O     O_R   0.832230 0.576350 0.670880 -0.421581
O61   O     O_R   0.167770 0.576350 0.329120 -0.413417
O62   O     O_2   0.097856 0.747036 0.399511 -0.189632
O63   O     O_2   0.082606 0.543931 0.444082 -0.285955
O64   O     O_3   0.085520 0.711676 0.535268 -0.460424
O65   O     O_2   0.899598 0.751852 0.604386 -0.179432
O66   O     O_2   0.920701 0.555770 0.554374 -0.277270
O67   O     O_3   0.912613 0.734929 0.468129 -0.458272
O68   O     O_2   0.597870 0.247028 0.399581 -0.189602
O69   O     O_R   0.554340 0.919250 0.323220 -0.447243
O70   O     O_2   0.582614 0.043886 0.444082 -0.286069
O71   O     O_3   0.585541 0.211536 0.535327 -0.461818
O72   O     O_2   0.399620 0.251835 0.604382 -0.180021
O73   O     O_2   0.420702 0.055744 0.554370 -0.277207
O74   O     O_3   0.412628 0.234908 0.468128 -0.458161
O75   O     O_2   0.314332 0.416885 0.520828 -0.330037
O76   O     O_2   0.267697 0.372717 0.638470 -0.195505
O77   O     O_3   0.179297 0.382563 0.533990 -0.535808
O78   O     O_2   0.684671 0.418311 0.483492 -0.351507
O79   O     O_2   0.733738 0.374380 0.367692 -0.214288
O80   O     O_R   0.945660 0.419250 0.676780 -0.436864
O81   O     O_3   0.820446 0.387416 0.473235 -0.544906
O82   O     O_2   0.814242 0.916737 0.520957 -0.326400
O83   O     O_2   0.767535 0.872672 0.638588 -0.215950
O84   O     O_3   0.679192 0.882539 0.534054 -0.538923
O85   O     O_2   0.184627 0.918362 0.483467 -0.351552
O86   O     O_2   0.233726 0.874402 0.367686 -0.214403
O87   O     O_3   0.320404 0.887400 0.473257 -0.544799
O88   O     O_2   0.894821 0.775804 0.085425 -0.270630
O89   O     O_2   0.010420 0.818967 0.127920 -0.117583
O90   O     O_3   0.970459 0.918395 0.010474 -0.443984
O91   O     O_R   0.054340 0.419250 0.323220 -0.447364
O92   O     O_2   0.067325 0.849206 0.883748 -0.209539
O93   O     O_2   0.002695 0.714668 0.808722 -0.190913
O94   O     O_3   0.932102 0.846491 0.890447 -0.464558
O95   O     O_2   0.395187 0.275925 0.084787 -0.270109
O96   O     O_2   0.510703 0.318969 0.127488 -0.117684
O97   O     O_3   0.471075 0.418332 0.009937 -0.443123
O98   O     O_2   0.567397 0.349153 0.883133 -0.208734
O99   O     O_2   0.502657 0.214631 0.808187 -0.192210
O100  O     O_3   0.432197 0.346392 0.890062 -0.465003
O101  O     O_2   0.198958 0.476535 0.829140 -0.152588
O102  O     O_R   0.456260 0.718170 0.670000 -0.516393
O103  O     O_2   0.282956 0.332353 0.875178 -0.280101
O104  O     O_3   0.166458 0.358195 0.942014 -0.580379
O105  O     O_2   0.561745 0.548421 0.088793 -0.233501
O106  O     O_2   0.611146 0.415717 0.004051 -0.113715
O107  O     O_3   0.666423 0.424245 0.130452 -0.380744
O108  O     O_2   0.783076 0.831510 0.876332 -0.293834
O109  O     O_2   0.672513 0.863380 0.937027 -0.344891
O110  O     O_3   0.695202 0.978894 0.820533 -0.392568
O111  O     O_2   0.061519 0.048677 0.089313 -0.234365
O112  O     O_2   0.110148 0.914335 0.005180 -0.111909
S1    S     S_3+6 0.116415 0.661007 0.458208 0.108112
S2    S     S_3+6 0.005734 0.767440 0.881235 0.172169
S3    S     S_3+6 0.468925 0.296263 0.061658 0.179855
S4    S     S_3+6 0.505818 0.267358 0.880707 0.172476
S5    S     S_3+6 0.230104 0.423711 0.895489 0.056390
S6    S     S_3+6 0.628262 0.498752 0.062470 0.157639
S7    S     S_3+6 0.729584 0.922433 0.895675 0.044644
S8    S     S_3+6 0.127780 0.997595 0.063315 0.158082
S9    S     S_3+6 0.185657 0.696048 0.039217 0.042074
S10   S     S_3+6 0.827725 0.534389 0.981345 0.012655
S11   S     S_3+6 0.685789 0.196394 0.039373 0.040821
S12   S     S_3+6 0.883585 0.671628 0.543464 0.123081
S13   S     S_3+6 0.328537 0.034691 0.981391 0.011183
S14   S     S_3+6 0.616429 0.160942 0.458248 0.107347
S15   S     S_3+6 0.383597 0.171613 0.543463 0.122437
S16   S     S_3+6 0.253760 0.435312 0.569136 0.010081
S17   S     S_3+6 0.745965 0.437954 0.435996 -0.005323
S18   S     S_3+6 0.753654 0.935236 0.569231 0.001427
S19   S     S_3+6 0.245941 0.937970 0.435994 -0.005454
S20   S     S_3+6 0.968499 0.796286 0.062176 0.178378

loop_
_geom_bond_atom_site_label_1
_geom_bond_atom_site_label_2
_ccdc_geom_bond_type
C44   C49   S    
C43   C73   S    
Cr4   O43   S    
H38   O110  S    
H28   O81   S    
C56   C76   A    
C31   C66   S    
C7    C20   D    
Cr12  O40   S    
C2    C84   A    
C14   C18   S    
C67   C77   A    
C24   C27   D    
Cr5   O25   S    
C75   C76   A    
C31   C49   D    
C47   S14   S    
Cr11  O39   S    
C39   H4    S    
C32   C68   S    
C15   C19   S    
C6    C19   D    
H29   O84   S    
C1    O27   A    
C29   C30   S    
C35   S19   S    
O82   S18   D    
C35   C52   D    
C15   H6    S    
Cr9   O69   S    
Cr8   O31   S    
C70   O21   A    
C26   H20   S    
C23   O33   A    
C48   C52   S    
O90   S20   S    
C10   C15   D    
Cr2   O2    S    
Cr2   O45   S    
C37   H2    S    
O14   S13   D    
C73   C83   A    
H36   O104  S    
O8    S10   D    
C31   S16   S    
H31   O90   S    
O84   S18   S    
C49   H44   S    
C65   O17   A    
H30   O87   S    
Cr4   O26   S    
C68   O50   A    
O101  S5    D    
O74   S15   S    
Cr4   O48   S    
C83   H34   S    
O111  S8    D    
C21   S8    S    
Cr10  O24   S    
Cr8   O58   S    
O107  S6    S    
C73   C77   A    
C36   H48   S    
C14   H5    S    
Cr9   O23   S    
O75   S16   D    
C58   O53   A    
Cr8   O22   S    
O12   S11   S    
O109  S7    D    
C46   S12   S    
C55   O36   A    
O73   S15   D    
Cr8   O57   S    
Cr10  O33   S    
C7    C55   S    
O67   S12   S    
O112  S8    D    
O6    S9    S    
O103  S5    D    
H33   O97   S    
Cr7   O56   S    
C16   H7    S    
Cr1   O53   S    
C41   C71   S    
C40   O35   A    
C42   O38   A    
O62   S1    D    
Cr5   O54   S    
Cr6   O29   S    
C43   O43   A    
C67   C84   A    
O70   S14   D    
C54   O45   A    
Cr12  O22   S    
C4    C56   A    
O72   S15   D    
C53   O1    A    
C6    H10   S    
H40   O6    S    
O95   S3    D    
C6    C54   S    
C62   O58   A    
O85   S19   D    
O110  S7    S    
C20   S7    S    
C13   S13   S    
C57   O47   A    
Cr9   O32   S    
Cr3   O24   S    
C33   S18   S    
C77   C79   A    
O11   S11   D    
C22   H19   S    
O76   S16   D    
O64   S1    S    
O63   S1    D    
C42   C74   S    
C66   O18   A    
C57   O48   A    
C41   O37   A    
Cr2   O23   S    
Cr11  O61   S    
Cr10  O38   S    
O16   S13   S    
O86   S19   D    
O89   S20   D    
Cr10  O60   S    
Cr5   O23   S    
Cr9   O37   S    
C17   H8    S    
O92   S2    D    
C44   S1    S    
C78   C79   A    
C60   O60   A    
C47   C51   S    
Cr6   O51   S    
C58   O57   A    
C39   C58   S    
C3    C45   A    
O71   S14   S    
C17   C21   S    
O10   S11   D    
Cr7   O26   S    
C25   C64   S    
C61   O61   A    
Cr1   O49   S    
C9    C14   D    
C48   S15   S    
C63   O2    A    
C38   H3    S    
C2    C78   A    
C28   H15   S    
C8    C57   S    
C22   C62   S    
Cr7   O47   S    
C11   C16   D    
C42   O42   A    
C60   O55   A    
Cr3   O20   S    
C81   H12   S    
C43   O39   A    
O4    S9    D    
C16   C20   S    
C67   F3    S    
C8    C21   D    
O94   S2    S    
O104  S5    S    
O66   S12   D    
C72   C76   A    
O96   S3    D    
Cr11  O91   S    
C56   F2    S    
C33   C51   D    
O79   S17   D    
C32   C50   D    
C38   C47   D    
H37   O107  S    
C8    H13   S    
C19   S6    S    
Cr7   O52   S    
H25   O71   S    
C50   H45   S    
H41   O9    S    
Cr7   O30   S    
C12   O32   A    
O108  S7    D    
Cr6   O36   S    
Cr4   O17   S    
C24   C63   S    
C3    S3    S    
C74   C79   A    
Cr3   O42   S    
C78   F4    S    
C9    C34   S    
O105  S6    D    
O77   S16   S    
H22   O64   S    
C4    S4    S    
C34   O30   A    
C1    C13   S    
C37   C60   S    
C3    C4    A    
O97   S3    S    
C82   H23   S    
C64   O80   A    
O7    S10   D    
O98   S4    D    
C54   O25   A    
C69   O51   A    
Cr6   O55   S    
O15   S13   D    
H32   O94   S    
C25   C30   D    
C9    S9    S    
O106  S6    D    
Cr2   O41   S    
C70   O52   A    
Cr4   O21   S    
C40   C72   S    
O83   S18   D    
Cr3   O13   S    
O88   S20   D    
C26   C65   S    
C11   S11   S    
H35   O100  S    
Cr11  O26   S    
O5    S9    D    
Cr2   O19   S    
O99   S4    D    
Cr3   O46   S    
H42   O12   S    
C80   C81   A    
Cr8   O35   S    
C18   S5    S    
C29   H16   S    
C11   C12   S    
H26   O74   S    
Cr11  O34   S    
C35   C70   S    
C40   O40   A    
C30   H17   S    
C33   C69   S    
C10   C23   S    
C52   H47   S    
C46   C50   S    
C24   H18   S    
Cr1   O22   S    
C51   H46   S    
C13   C17   D    
C80   H1    S    
C45   C75   A    
O87   S19   S    
Cr10  O80   S    
C63   O69   A    
Cr12  O102  S    
C5    C53   S    
C69   O20   A    
C61   O56   A    
C45   F1    S    
O93   S2    D    
C71   C75   A    
C1    O31   A    
C59   O54   A    
Cr12  O44   S    
C64   O13   A    
C2    S2    S    
C12   O28   A    
C5    H9    S    
C5    C18   D    
O9    S10   S    
C84   S20   S    
O65   S12   D    
H39   O3    S    
O81   S17   S    
Cr1   O27   S    
O100  S4    S    
C7    H11   S    
H43   O16   S    
C34   O34   A    
Cr12  O18   S    
C53   O44   A    
Cr1   O1    S    
C23   O29   A    
C66   O49   A    
C36   C44   D    
C41   O41   A    
C38   C59   S    
C27   H14   S    
O3    S8    S    
C62   O102  A    
C55   O46   A    
C26   C29   D    
C72   C80   A    
C82   C83   A    
C10   S10   S    
Cr6   O24   S    
C27   C28   S    
H27   O77   S    
O68   S14   D    
C65   O91   A    
C22   C28   D    
Cr5   O28   S    
Cr5   O50   S    
C37   C46   D    
C68   O19   A    
C25   H21   S    
O78   S17   D    
C74   C82   A    
C32   S17   S    
C36   C61   S    
C59   O59   A    
C39   C48   D    
C71   C81   A    
H24   O67   S    
Cr9   O59   S    
