data_mof_unit_pretest_1942.cif
_audit_creation_date              2012-12-10T17:21:08-0500
_audit_creation_method            fapswitch 2.2
_symmetry_space_group_name_H-M    P1
_symmetry_Int_Tables_number       1
_space_group_crystal_system       triclinic
_cell_length_a                    38.474615
_cell_length_b                    21.777828
_cell_length_c                    21.817262
_cell_angle_alpha                 89.985704
_cell_angle_beta                  56.248684
_cell_angle_gamma                 90.001162
_cell_volume                      15199.4820258

loop_
_atom_site_label
_atom_site_type_symbol
_atom_type_description
_atom_site_fract_x
_atom_site_fract_y
_atom_site_fract_z
_atom_type_partial_charge
C1    C     C_R   0.998794 0.499885 0.382561 0.879314
C2    C     C_R   0.001204 0.499865 0.617449 0.878059
C3    C     C_R   0.498801 0.999889 0.382556 0.879467
C4    C     C_R   0.501200 0.999868 0.617451 0.878244
C5    C     C_3   0.708226 0.499940 0.794605 -0.147205
C6    C     C_3   0.291778 0.499875 0.205471 -0.167731
C7    C     C_3   0.208229 0.999870 0.794619 -0.147089
C8    C     C_3   0.791777 0.999868 0.205441 -0.167631
C9    C     C_3   0.764162 0.542692 0.778297 -0.182288
C10   C     C_3   0.235786 0.514324 0.204763 -0.183116
C11   C     C_3   0.264178 0.035433 0.784981 -0.181957
C12   C     C_3   0.735807 0.023030 0.207680 -0.183630
C13   C     C_3   0.736020 0.555125 0.749711 0.335941
C14   C     C_3   0.263926 0.555649 0.217306 0.327914
C15   C     C_3   0.236043 0.057235 0.759294 0.336429
C16   C     C_3   0.763948 0.057415 0.226283 0.329047
C17   C     C_1   0.837633 0.500031 0.666072 0.031362
C18   C     C_1   0.162365 0.500221 0.333960 0.040582
C19   C     C_1   0.337636 0.000049 0.666092 0.030915
C20   C     C_1   0.662363 0.000166 0.333927 0.040300
C21   C     C_1   0.662427 0.499924 0.839672 0.197298
C22   C     C_1   0.337575 0.499827 0.160383 0.203187
C23   C     C_1   0.162430 0.999853 0.839670 0.197129
C24   C     C_1   0.837574 0.999832 0.160364 0.203070
C25   C     C_R   0.030199 0.533665 0.254110 -0.210721
C26   C     C_R   0.969967 0.533964 0.745725 -0.210534
C27   C     C_R   0.530212 0.033650 0.254096 -0.210596
C28   C     C_R   0.469929 0.033892 0.745764 -0.210464
C29   C     C_R   0.029038 0.538970 0.191117 0.401161
C30   C     C_R   0.971128 0.539232 0.808718 0.400479
C31   C     C_R   0.529045 0.038956 0.191107 0.401391
C32   C     C_R   0.471098 0.039175 0.808747 0.400928
C33   C     C_R   0.001089 0.500839 0.185227 -0.243376
C34   C     C_R   0.998890 0.500838 0.814817 -0.243525
C35   C     C_R   0.501080 0.000844 0.185240 -0.243388
C36   C     C_R   0.498899 0.000838 0.814802 -0.243565
C37   C     C_R   0.973353 0.461135 0.243496 -0.208153
C38   C     C_R   0.026374 0.460762 0.756851 -0.208353
C39   C     C_R   0.473304 0.961207 0.243563 -0.208103
C40   C     C_R   0.526449 0.960864 0.756758 -0.208354
C41   C     C_R   0.969419 0.464823 0.311265 0.394275
C42   C     C_R   0.030312 0.464309 0.689067 0.394934
C43   C     C_R   0.469369 0.964930 0.311329 0.393898
C44   C     C_R   0.530387 0.964457 0.688977 0.394621
C45   C     C_R   0.920006 0.500022 0.581688 0.848259
C46   C     C_R   0.079995 0.500043 0.418314 0.847587
C47   C     C_R   0.420007 0.000022 0.581680 0.848795
C48   C     C_R   0.579994 0.000039 0.418314 0.848059
C49   C     C_R   0.999134 0.499635 0.315276 -0.235870
C50   C     C_R   0.000845 0.499563 0.684768 -0.237019
C51   C     C_R   0.499132 0.999655 0.315282 -0.235767
C52   C     C_R   0.500848 0.999579 0.684759 -0.236892
C53   C     C_R   0.500007 0.381282 0.000001 0.774378
C54   C     C_R   0.000001 0.881279 0.000006 0.774283
C55   C     C_R   0.580031 0.499955 0.920394 0.794646
C56   C     C_R   0.419969 0.499930 0.079608 0.794120
C57   C     C_R   0.080032 0.999942 0.920393 0.794671
C58   C     C_R   0.919969 0.999934 0.079608 0.794067
C59   C     C_R   0.499995 0.618535 1.000000 0.774435
C60   C     C_R   0.999998 0.118535 0.999995 0.774513
C61   C     C_R   0.999997 0.380933 0.000001 0.758295
C62   C     C_R   0.499996 0.880933 0.999996 0.758227
C63   C     C_R   0.000374 0.501418 0.118739 0.880096
C64   C     C_R   0.999623 0.501459 0.881272 0.880811
C65   C     C_R   0.500373 0.001406 0.118743 0.880090
C66   C     C_R   0.499625 0.001443 0.881268 0.880686
C67   C     C_R   0.000006 0.618903 0.000021 0.875617
C68   C     C_R   0.500006 0.118907 0.000011 0.875536
C69   C     C_R   0.470993 0.282450 0.065121 -0.076165
C70   C     C_R   0.529070 0.282488 0.934904 -0.079361
C71   C     C_R   0.971071 0.782434 0.065194 -0.076870
C72   C     C_R   0.028971 0.782471 0.934846 -0.078626
C73   C     C_R   0.971571 0.718206 0.065615 -0.079403
C74   C     C_R   0.028491 0.718243 0.934439 -0.079794
C75   C     C_R   0.471498 0.218223 0.065556 -0.079359
C76   C     C_R   0.528574 0.218259 0.934477 -0.079586
C77   C     C_R   0.000025 0.686058 0.000026 -0.139457
C78   C     C_R   0.500026 0.186068 0.000014 -0.139572
C79   C     C_3   0.735925 0.457313 0.728175 0.342402
C80   C     C_3   0.264113 0.485765 0.288806 0.321020
C81   C     C_3   0.235923 0.964510 0.721558 0.340587
C82   C     C_3   0.764087 0.977001 0.285833 0.321336
C83   C     C_R   0.500021 0.314413 0.000006 -0.100289
C84   C     C_R   0.000012 0.814403 0.000014 -0.100103
C85   C     C_R   0.527918 0.717609 0.011132 -0.073717
C86   C     C_R   0.472057 0.717610 0.988881 -0.075405
C87   C     C_R   0.027927 0.217609 0.011119 -0.074339
C88   C     C_R   0.972074 0.217612 0.988846 -0.075028
C89   C     C_R   0.027254 0.281858 0.012801 -0.066281
C90   C     C_R   0.972736 0.281865 0.987192 -0.065851
C91   C     C_R   0.527249 0.781858 0.012806 -0.066396
C92   C     C_R   0.472723 0.781862 0.987214 -0.065814
C93   C     C_R   0.999992 0.313926 0.000004 -0.101430
C94   C     C_R   0.499989 0.813925 0.000005 -0.101552
C95   C     C_R   0.499993 0.685547 0.999994 -0.107792
C96   C     C_R   0.000001 0.185548 0.999981 -0.107807
C97   C     C_3   0.763702 0.512509 0.683200 -0.184752
C98   C     C_3   0.236283 0.541603 0.300714 -0.183910
C99   C     C_3   0.263717 0.021897 0.686156 -0.185097
C100  C     C_3   0.736283 0.034599 0.306754 -0.184236
C101  C     C_1   0.875249 0.500065 0.627880 -0.109468
C102  C     C_1   0.124750 0.500163 0.372146 -0.108694
C103  C     C_1   0.375251 0.000071 0.627882 -0.109222
C104  C     C_1   0.624749 0.000140 0.372128 -0.108259
C105  C     C_1   0.624802 0.499937 0.876554 -0.047125
C106  C     C_1   0.375199 0.499865 0.123467 -0.046658
C107  C     C_1   0.124804 0.999891 0.876550 -0.047247
C108  C     C_1   0.875199 0.999871 0.123460 -0.046791
C109  C     C_3   0.764065 0.444669 0.756717 -0.185305
C110  C     C_3   0.235999 0.444319 0.276391 -0.186427
C111  C     C_3   0.264049 0.942513 0.747169 -0.185922
C112  C     C_3   0.735969 0.942472 0.267337 -0.186054
C113  C     C_3   0.791821 0.499959 0.711846 -0.106412
C114  C     C_3   0.208176 0.500181 0.288174 -0.111797
C115  C     C_3   0.291826 0.999977 0.711881 -0.106367
C116  C     C_3   0.708174 0.000110 0.288137 -0.111767
C117  C     C_3   0.736375 0.487422 0.823125 0.242068
C118  C     C_3   0.263645 0.458526 0.193027 0.325140
C119  C     C_3   0.236368 0.977996 0.820230 0.243378
C120  C     C_3   0.763641 0.965443 0.186932 0.323794
Cu1   Cu    Cu3+1 0.000000 0.438200 0.500000 1.138904
Cu2   Cu    Cu3+1 0.500000 0.938200 0.500000 1.138532
Cu3   Cu    Cu3+1 0.000000 0.561810 0.500000 1.086434
Cu4   Cu    Cu3+1 0.500000 0.061810 0.500000 1.086671
Cu5   Cu    Cu3+1 0.500010 0.499870 0.938220 1.086027
Cu6   Cu    Cu3+1 0.499990 0.499870 0.061780 1.090071
Cu7   Cu    Cu3+1 0.000010 0.999870 0.938220 1.086685
Cu8   Cu    Cu3+1 0.999990 0.999870 0.061780 1.089264
Cu9   Cu    Cu3+1 0.041440 0.499890 0.958590 1.113580
Cu10  Cu    Cu3+1 0.958560 0.499890 0.041410 1.116263
Cu11  Cu    Cu3+1 0.541440 0.999890 0.958590 1.113932
Cu12  Cu    Cu3+1 0.458560 0.999890 0.041410 1.116333
O1    O     O_R   0.000010 0.447810 0.409820 -0.543001
O2    O     O_R   0.999990 0.447810 0.590180 -0.543087
O3    O     O_R   0.500010 0.947810 0.409820 -0.543138
O4    O     O_R   0.499990 0.947810 0.590180 -0.543464
O5    O     O_R   0.034990 0.499890 0.055220 -0.525610
O6    O     O_R   0.965010 0.499890 0.944780 -0.525662
O7    O     O_R   0.534990 0.999890 0.055220 -0.525508
O8    O     O_R   0.465010 0.999890 0.944780 -0.525531
O9    O     O_R   0.965000 0.499930 0.125200 -0.587551
O10   O     O_R   0.035000 0.499930 0.874800 -0.587865
O11   O     O_R   0.465000 0.999930 0.125200 -0.587591
O12   O     O_R   0.535000 0.999930 0.874800 -0.587883
O13   O     O_R   0.035030 0.590070 0.965060 -0.565191
O14   O     O_R   0.964970 0.590070 0.034940 -0.564541
O15   O     O_R   0.535030 0.090070 0.965060 -0.565153
O16   O     O_R   0.464970 0.090070 0.034940 -0.564532
O17   O     O_R   0.000010 0.552200 0.409870 -0.580735
O18   O     O_R   0.999990 0.552200 0.590130 -0.581327
O19   O     O_R   0.500010 0.052200 0.409870 -0.580752
O20   O     O_R   0.499990 0.052200 0.590130 -0.581157
O21   O     O_R   0.939540 0.447810 0.560460 -0.555034
O22   O     O_R   0.060460 0.447810 0.439540 -0.554765
O23   O     O_R   0.439540 0.947810 0.560460 -0.555404
O24   O     O_R   0.560460 0.947810 0.439540 -0.554592
O25   O     O_R   0.939550 0.552200 0.560510 -0.567573
O26   O     O_R   0.060450 0.552200 0.439490 -0.567891
O27   O     O_R   0.439550 0.052200 0.560510 -0.567452
O28   O     O_R   0.560450 0.052200 0.439490 -0.567881
O29   O     O_R   0.500010 0.409700 0.947870 -0.573063
O30   O     O_R   0.499990 0.409700 0.052130 -0.572480
O31   O     O_R   0.000010 0.909700 0.947870 -0.572915
O32   O     O_R   0.999990 0.909700 0.052130 -0.572353
O33   O     O_R   0.560470 0.499890 0.887380 -0.558224
O34   O     O_R   0.439530 0.499890 0.112620 -0.557038
O35   O     O_R   0.060470 0.999890 0.887380 -0.557955
O36   O     O_R   0.939530 0.999890 0.112620 -0.557388
O37   O     O_R   0.560460 0.499990 0.991770 -0.558393
O38   O     O_R   0.439540 0.499990 0.008230 -0.560139
O39   O     O_R   0.060460 0.999990 0.991770 -0.558628
O40   O     O_R   0.939540 0.999990 0.008230 -0.559801
O41   O     O_R   0.500010 0.590060 0.947790 -0.574114
O42   O     O_R   0.499990 0.590060 0.052210 -0.573850
O43   O     O_R   0.000010 0.090060 0.947790 -0.574203
O44   O     O_R   0.999990 0.090060 0.052210 -0.574074
O45   O     O_R   0.034970 0.409720 0.965020 -0.580160
O46   O     O_R   0.965030 0.409720 0.034980 -0.579770
O47   O     O_R   0.534970 0.909720 0.965020 -0.580083
O48   O     O_R   0.465030 0.909720 0.034980 -0.579763
C121  C     C_1   0.778838 0.526141 0.606325 0.463578
N1    N     N_1   0.790796 0.536856 0.545717 -0.170578
C122  C     C_1   0.221228 0.587137 0.359861 0.475901
N2    N     N_1   0.209357 0.623017 0.406495 -0.180383
C123  C     C_1   0.278853 0.045845 0.612476 0.466562
N3    N     N_1   0.290807 0.064691 0.554382 -0.173172
C124  C     C_1   0.721202 0.072464 0.372588 0.473935
N4    N     N_1   0.709306 0.102292 0.424497 -0.179132
S1    S     S_3+6 0.926145 0.429487 0.391724 0.047912
O49   O     O_2   0.891977 0.412211 0.381132 -0.248836
O50   O     O_2   0.940688 0.372796 0.410444 -0.237089
O51   O     O_3   0.906245 0.479353 0.462098 -0.557714
H1    H     H_    0.877854 0.463661 0.499061 0.376441
S2    S     S_3+6 0.073234 0.428030 0.609008 0.047586
O52   O     O_2   0.107382 0.410594 0.619593 -0.248556
O53   O     O_2   0.058179 0.371293 0.591384 -0.238966
O54   O     O_3   0.093400 0.477126 0.537829 -0.557179
H2    H     H_    0.121494 0.460574 0.500737 0.378857
S3    S     S_3+6 0.426012 0.929834 0.391886 0.048096
O55   O     O_2   0.391841 0.912604 0.381280 -0.248807
O56   O     O_2   0.440423 0.873152 0.410871 -0.236860
O57   O     O_3   0.406187 0.979905 0.462062 -0.558201
H3    H     H_    0.377562 0.964824 0.498692 0.378093
S4    S     S_3+6 0.573423 0.928491 0.608792 0.047624
O58   O     O_2   0.607571 0.911093 0.619393 -0.248976
O59   O     O_2   0.558533 0.871775 0.590803 -0.238410
O60   O     O_3   0.593511 0.977856 0.537874 -0.558000
H4    H     H_    0.621743 0.961678 0.500889 0.378898
C125  C     C_1   0.439791 0.315483 0.131161 0.293017
N5    N     N_1   0.414906 0.341785 0.183708 -0.175108
C126  C     C_1   0.560281 0.315559 0.868869 0.293708
N6    N     N_1   0.585173 0.341887 0.816326 -0.165351
C127  C     C_1   0.939960 0.815457 0.131325 0.291793
N7    N     N_1   0.915151 0.841751 0.183947 -0.171332
C128  C     C_1   0.060065 0.815534 0.868703 0.292225
N8    N     N_1   0.084859 0.841859 0.816069 -0.166764
C129  C     C_1   0.943692 0.685605 0.134262 0.346249
N9    N     N_1   0.921538 0.659659 0.188972 -0.196622
C130  C     C_1   0.056406 0.685684 0.865803 0.346993
N10   N     N_1   0.078589 0.659773 0.811102 -0.197450
C131  C     C_1   0.443547 0.185635 0.134178 0.346245
N11   N     N_1   0.421334 0.159699 0.188870 -0.196726
C132  C     C_1   0.556561 0.185713 0.865867 0.347325
N12   N     N_1   0.578803 0.159814 0.811184 -0.197618
C133  C     C_1   0.558235 0.684758 0.018661 0.305621
N13   N     N_1   0.582431 0.658608 0.024529 -0.180915
C134  C     C_1   0.441719 0.684760 0.981408 0.304469
N14   N     N_1   0.417503 0.658616 0.975589 -0.172182
C135  C     C_1   0.058254 0.184759 0.018622 0.306603
N15   N     N_1   0.082458 0.158611 0.024469 -0.179303
C136  C     C_1   0.941758 0.184763 0.981312 0.305715
N16   N     N_1   0.917563 0.158618 0.975440 -0.174987
C137  C     C_1   0.053736 0.314701 0.029922 0.288536
N17   N     N_1   0.074772 0.340866 0.043674 -0.214660
C138  C     C_1   0.946251 0.314718 0.970084 0.288916
N18   N     N_1   0.925212 0.340893 0.956340 -0.215039
C139  C     C_1   0.553730 0.814702 0.029927 0.288568
N19   N     N_1   0.574765 0.840868 0.043683 -0.214590
C140  C     C_1   0.446230 0.814714 0.970123 0.288901
N20   N     N_1   0.425185 0.840886 0.956393 -0.214655
S5    S     S_3+6 0.716942 0.400481 0.695005 0.050646
O61   O     O_2   0.691315 0.354287 0.754861 -0.251564
O62   O     O_2   0.690322 0.430725 0.673033 -0.241129
O63   O     O_3   0.757746 0.365272 0.621572 -0.494130
H5    H     H_    0.745097 0.334661 0.605979 0.399126
S6    S     S_3+6 0.283010 0.466625 0.344716 0.050284
O64   O     O_2   0.309127 0.409412 0.315224 -0.241073
O65   O     O_2   0.309115 0.518666 0.343228 -0.241023
O66   O     O_3   0.242137 0.454536 0.431657 -0.499912
H6    H     H_    0.254729 0.443983 0.459436 0.399215
S7    S     S_3+6 0.216997 0.917264 0.679459 0.051616
O67   O     O_2   0.191421 0.865781 0.730938 -0.247896
O68   O     O_2   0.190346 0.955179 0.663326 -0.241409
O69   O     O_3   0.257840 0.888343 0.600525 -0.494192
H7    H     H_    0.245226 0.862990 0.580048 0.399818
S8    S     S_3+6 0.782952 0.946263 0.337816 0.049712
O70   O     O_2   0.808852 0.890169 0.299572 -0.243711
O71   O     O_2   0.809265 0.993671 0.343905 -0.240439
O72   O     O_3   0.742060 0.927281 0.422408 -0.499271
H8    H     H_    0.754635 0.910602 0.448089 0.399256
S9    S     S_3+6 0.717109 0.628617 0.745391 0.043002
O73   O     O_2   0.690994 0.621798 0.714135 -0.245196
O74   O     O_2   0.690983 0.655314 0.821642 -0.254293
O75   O     O_3   0.757946 0.674996 0.690969 -0.503828
H9    H     H_    0.745321 0.714663 0.691064 0.396050
S10   S     S_3+6 0.282788 0.629696 0.177680 0.044673
O76   O     O_2   0.309285 0.654983 0.202682 -0.255054
O77   O     O_2   0.308518 0.624352 0.095095 -0.242490
O78   O     O_3   0.241923 0.676526 0.205129 -0.498955
H10   H     H_    0.254520 0.716444 0.181268 0.397963
S11   S     S_3+6 0.217153 0.133552 0.767698 0.042172
O79   O     O_2   0.191033 0.136487 0.736120 -0.247920
O80   O     O_2   0.191038 0.151298 0.847724 -0.252115
O81   O     O_3   0.258005 0.181676 0.721289 -0.503309
H11   H     H_    0.245395 0.222881 0.728415 0.395773
S12   S     S_3+6 0.782832 0.133872 0.198657 0.043483
O82   O     O_2   0.809179 0.150791 0.227304 -0.252399
O83   O     O_2   0.808717 0.137663 0.115942 -0.245960
O84   O     O_3   0.741978 0.182100 0.233392 -0.500548
H12   H     H_    0.754587 0.223332 0.215964 0.397134
C141  C     C_1   0.779766 0.589460 0.805698 0.466582
N21   N     N_1   0.792075 0.626307 0.827298 -0.164268
C142  C     C_1   0.220098 0.530003 0.158873 0.473013
N22   N     N_1   0.207716 0.542361 0.122732 -0.168822
C143  C     C_1   0.279806 0.074273 0.819641 0.465129
N23   N     N_1   0.292136 0.104874 0.846954 -0.162146
C144  C     C_1   0.720162 0.048241 0.164980 0.473540
N24   N     N_1   0.707816 0.068105 0.131344 -0.164827
S13   S     S_3+6 0.717932 0.471092 0.916597 0.077032
O85   O     O_2   0.689037 0.521561 0.965086 -0.197666
O86   O     O_2   0.694649 0.411162 0.939445 -0.231931
O87   O     O_3   0.758528 0.467003 0.925574 -0.456617
H13   H     H_    0.777054 0.434945 0.890165 0.343751
S14   S     S_3+6 0.282056 0.403191 0.121240 0.047746
O88   O     O_2   0.307926 0.434860 0.047863 -0.239575
O89   O     O_2   0.308283 0.356313 0.128342 -0.250403
O90   O     O_3   0.240905 0.368548 0.128414 -0.506591
H14   H     H_    0.253257 0.338640 0.087308 0.399155
S15   S     S_3+6 0.217900 0.949099 0.909861 0.075703
O91   O     O_2   0.189146 0.995527 0.966576 -0.197715
O92   O     O_2   0.194450 0.890184 0.922675 -0.234266
O93   O     O_3   0.258491 0.936484 0.917371 -0.459041
H15   H     H_    0.276796 0.907448 0.877092 0.344071
S16   S     S_3+6 0.782031 0.919377 0.107050 0.048773
O94   O     O_2   0.807970 0.958259 0.039299 -0.239056
O95   O     O_2   0.808182 0.867786 0.106361 -0.247789
O96   O     O_3   0.740865 0.890590 0.109091 -0.506678
H16   H     H_    0.753206 0.865748 0.063561 0.399074
C145  C     C_1   0.779488 0.384015 0.760260 0.408445
N25   N     N_1   0.791639 0.336198 0.763059 -0.190550
C146  C     C_1   0.220613 0.383275 0.308934 0.470539
N26   N     N_1   0.208482 0.335168 0.334606 -0.173058
C147  C     C_1   0.279450 0.879558 0.740193 0.408578
N27   N     N_1   0.291587 0.829929 0.734694 -0.189050
C148  C     C_1   0.720575 0.879426 0.289941 0.472108
N28   N     N_1   0.708442 0.829733 0.307770 -0.175721
C149  C     C_1   0.064351 0.560472 0.255395 0.401285
N29   N     N_1   0.091581 0.581504 0.256659 -0.212592
C150  C     C_1   0.935966 0.561155 0.744271 0.400194
N30   N     N_1   0.908855 0.582495 0.742870 -0.217670
C151  C     C_1   0.564364 0.060456 0.255379 0.401892
N31   N     N_1   0.591592 0.081491 0.256646 -0.214270
C152  C     C_1   0.435894 0.060999 0.744350 0.400367
N32   N     N_1   0.408758 0.082272 0.742979 -0.217577
S17   S     S_3+6 0.061261 0.594472 0.121771 0.048595
O97   O     O_2   0.076475 0.643213 0.150251 -0.244998
O98   O     O_2   0.098331 0.562625 0.057540 -0.234875
O99   O     O_3   0.033651 0.629305 0.093512 -0.570490
H17   H     H_    0.052396 0.661815 0.059205 0.379105
S18   S     S_3+6 0.939098 0.594937 0.877877 0.048675
O100  O     O_2   0.924019 0.643791 0.849274 -0.246583
O101  O     O_2   0.901940 0.563323 0.942245 -0.232138
O102  O     O_3   0.966842 0.629576 0.905966 -0.571098
H18   H     H_    0.948251 0.662312 0.940009 0.379054
S19   S     S_3+6 0.561261 0.094462 0.121762 0.048206
O103  O     O_2   0.576491 0.143192 0.150227 -0.245817
O104  O     O_2   0.598321 0.062621 0.057506 -0.235031
O105  O     O_3   0.533630 0.129311 0.093553 -0.570422
H19   H     H_    0.552368 0.161827 0.059249 0.378926
S20   S     S_3+6 0.439054 0.094866 0.877914 0.048334
O106  O     O_2   0.423949 0.143689 0.849323 -0.247118
O107  O     O_2   0.401913 0.063234 0.942295 -0.232780
O108  O     O_3   0.466802 0.129548 0.905974 -0.570937
H20   H     H_    0.448199 0.162264 0.940039 0.379134
C153  C     C_1   0.950902 0.414100 0.231721 0.409189
N33   N     N_1   0.933248 0.376521 0.221841 -0.203136
C154  C     C_1   0.048550 0.413512 0.769000 0.408205
N34   N     N_1   0.065985 0.375768 0.779178 -0.204814
C155  C     C_1   0.450798 0.914214 0.231864 0.409133
N35   N     N_1   0.433098 0.876667 0.222048 -0.203430
C156  C     C_1   0.548701 0.913674 0.768805 0.408230
N36   N     N_1   0.566198 0.875976 0.778900 -0.204963

loop_
_geom_bond_atom_site_label_1
_geom_bond_atom_site_label_2
_ccdc_geom_bond_type
S2    O53   D    
C92   C140  S    
C61   O45   A    
C27   C151  S    
Cu10  O14   S    
C132  N12   T    
C110  C118  S    
C25   C149  S    
O102  H18   S    
C2    O2    A    
C55   C105  S    
C26   C50   A    
C12   C144  S    
C36   C66   S    
C98   C114  S    
S2    O54   S    
S11   O79   D    
S8    O72   S    
C29   C33   A    
O63   H5    S    
O81   H11   S    
C98   C122  S    
Cu10  O9    S    
C9    C13   S    
C11   C15   S    
S16   O96   S    
C12   C16   S    
C11   C115  S    
C5    C13   S    
Cu6   O42   S    
C7    C15   S    
S3    O55   D    
C8    C16   S    
O57   H3    S    
C81   S7    S    
C41   C49   A    
C25   C29   A    
Cu1   O22   S    
C79   C109  S    
C27   C31   A    
C152  N32   T    
C7    C119  S    
C28   C32   A    
S20   O106  D    
C71   C73   A    
C64   O6    A    
Cu9   O10   S    
C81   C99   S    
C87   C135  S    
C128  N8    T    
C135  N15   T    
C6    C80   S    
C134  N14   T    
C23   C107  T    
C91   C139  S    
C92   C94   A    
C56   C106  S    
C72   C84   A    
Cu1   O21   S    
C87   C89   A    
C60   O44   A    
Cu10  O6    S    
C99   C123  S    
C90   C93   A    
C20   C116  S    
C39   C155  S    
C79   C97   S    
C41   S1    S    
C141  N21   T    
C91   C94   A    
Cu4   O28   S    
C90   C138  S    
C79   S5    S    
C13   C97   S    
C32   S20   S    
Cu1   Cu3   S    
C111  C147  S    
C86   C95   A    
S19   O103  D    
C65   O7    A    
C72   C128  S    
C5    C21   S    
C151  N31   T    
C73   C77   A    
C38   C154  S    
C2    O18   A    
C155  N35   T    
S17   O99   S    
Cu2   O23   S    
C156  N36   T    
C67   C77   S    
S20   O108  S    
C147  N27   T    
C17   C113  S    
C47   O27   A    
C48   O28   A    
O66   H6    S    
C10   C118  S    
C32   C36   A    
C76   C78   A    
S9    O73   D    
C46   O26   A    
Cu8   O32   S    
C111  C119  S    
S5    O61   D    
C18   C102  T    
C89   C137  S    
S17   O98   D    
C2    C50   S    
O75   H9    S    
C74   C77   A    
S8    O71   D    
C67   O13   A    
S3    O57   S    
Cu11  O15   S    
C19   C115  S    
C54   O31   A    
C5    C79   S    
C58   O36   A    
C137  N17   T    
C110  C114  S    
C3    O3    A    
C68   O16   A    
C37   C153  S    
C44   C52   A    
C112  C148  S    
S16   O95   D    
Cu3   O18   S    
C139  N19   T    
C87   C96   A    
C86   C134  S    
C63   O5    A    
S17   O97   D    
C1    O1    A    
Cu9   O5    S    
C27   C51   A    
C14   C98   S    
C4    O20   A    
C30   C34   A    
C73   C129  S    
C45   O25   A    
C11   C143  S    
C10   C14   S    
C62   O47   A    
C16   C100  S    
S7    O69   S    
Cu3   O25   S    
C129  N9    T    
Cu5   O33   S    
C131  N11   T    
C6    C14   S    
C33   C63   S    
C28   C152  S    
C34   C64   S    
C125  N5    T    
C66   O8    A    
C31   S19   S    
S10   O77   D    
C42   C50   A    
C7    C81   S    
Cu4   O19   S    
Cu12  O48   S    
C26   C30   A    
C80   S6    S    
C85   C133  S    
Cu2   Cu4   S    
C112  C116  S    
Cu9   Cu10  S    
S19   O104  D    
S6    O64   D    
C56   O38   A    
Cu9   O13   S    
C118  S14   S    
S12   O83   D    
O99   H17   S    
S10   O78   S    
S9    O75   S    
Cu7   Cu8   S    
S5    O63   S    
C9    C113  S    
C85   C95   A    
C109  C145  S    
C7    C23   S    
C8    C24   S    
C120  S16   S    
C37   C41   A    
O54   H2    S    
S15   O93   S    
Cu11  O7    S    
C61   O46   A    
S4    O58   D    
Cu8   O39   S    
C142  N22   T    
C44   S4    S    
C12   C116  S    
S6    O66   S    
S11   O81   S    
C88   C96   A    
C140  N20   T    
C100  C116  S    
C16   S12   S    
C59   O42   A    
C54   C84   S    
C109  C117  S    
S7    O67   D    
C121  N1    T    
S18   O101  D    
C8    C82   S    
S20   O107  D    
C99   C115  S    
S14   O88   D    
C65   O11   A    
C61   C93   S    
C53   O30   A    
C66   O12   A    
C35   C65   S    
C6    C22   S    
S13   O87   S    
Cu10  O46   S    
S18   O102  S    
C138  N18   T    
C1    O17   A    
C24   C108  T    
Cu1   O2    S    
C10   C114  S    
C4    O4    A    
C117  S13   S    
Cu12  O11   S    
S2    O52   D    
C48   O24   A    
Cu5   O41   S    
C148  N28   T    
O78   H10   S    
Cu7   O43   S    
C82   S8    S    
C76   C132  S    
C68   C78   S    
C46   O22   A    
Cu8   O44   S    
C47   C103  S    
O60   H4    S    
Cu5   O38   S    
C100  C124  S    
S14   O90   S    
C72   C74   A    
S18   O100  D    
C119  S15   S    
C130  N10   T    
C3    C51   S    
C71   C127  S    
Cu9   O45   S    
C33   C37   A    
O96   H16   S    
C82   C112  S    
C10   C142  S    
C58   O40   A    
S15   O91   D    
C143  N23   T    
C126  N6    T    
S4    O60   S    
C127  N7    T    
C63   O9    A    
C70   C83   A    
C45   C101  S    
C60   C96   S    
C88   C90   A    
C62   C94   S    
Cu5   Cu6   S    
C31   C35   A    
C45   O21   A    
C55   O33   A    
Cu11  Cu12  S    
C154  N34   T    
C112  C120  S    
Cu7   O31   S    
C80   C98   S    
Cu2   O24   S    
Cu5   O29   S    
Cu6   O34   S    
S19   O105  S    
C57   O35   A    
Cu12  O8    S    
C53   C83   S    
O84   H12   S    
C124  N4    T    
O108  H20   S    
C43   C51   A    
C123  N3    T    
C64   O10   A    
C110  C146  S    
C69   C75   A    
C58   C108  S    
S1    O49   D    
C25   C49   A    
Cu2   O3    S    
C150  N30   T    
C88   C136  S    
C56   O34   A    
S3    O56   D    
C60   O43   A    
C54   O32   A    
C55   O37   A    
C21   C105  T    
Cu11  O12   S    
C146  N26   T    
Cu3   O17   S    
C9    C117  S    
O90   H14   S    
C35   C39   A    
C122  N2    T    
C11   C119  S    
C18   C114  S    
C85   C91   A    
C145  N25   T    
C46   C102  S    
O69   H7    S    
C4    C52   S    
O87   H13   S    
C38   C42   A    
C62   O48   A    
S7    O68   D    
C40   C156  S    
C48   C104  S    
Cu4   O27   S    
S1    O50   D    
C42   S2    S    
C17   C101  T    
C12   C120  S    
C19   C103  T    
C81   C111  S    
C1    C49   S    
C74   C130  S    
S12   O84   S    
C109  C113  S    
Cu4   O20   S    
C89   C93   A    
C70   C126  S    
C59   C95   S    
C15   S11   S    
S6    O65   D    
Cu12  O16   S    
C36   C40   A    
S9    O74   D    
Cu11  O47   S    
C39   C43   A    
Cu7   O40   S    
C22   C106  T    
C5    C117  S    
S5    O62   D    
S1    O51   S    
C69   C83   A    
C40   C44   A    
Cu2   O4    S    
S8    O70   D    
C67   O14   A    
C133  N13   T    
C9    C141  S    
S12   O82   D    
S15   O92   D    
C26   C150  S    
C68   O15   A    
S16   O94   D    
C57   C107  S    
S4    O59   D    
C144  N24   T    
C70   C76   A    
C30   S18   S    
C29   S17   S    
C69   C125  S    
C97   C113  S    
O72   H8    S    
C8    C120  S    
S13   O85   D    
C71   C84   A    
S11   O80   D    
O93   H15   S    
C34   C38   A    
C82   C100  S    
C15   C99   S    
C59   O41   A    
C111  C115  S    
C97   C121  S    
C20   C104  T    
Cu3   O26   S    
C3    O19   A    
O51   H1    S    
Cu6   O37   S    
C86   C92   A    
S14   O89   D    
C28   C52   A    
C53   O29   A    
C47   O23   A    
S13   O86   D    
C149  N29   T    
C75   C78   A    
S10   O76   D    
C75   C131  S    
Cu7   O35   S    
O105  H19   S    
C80   C110  S    
C136  N16   T    
Cu8   O36   S    
C43   S3    S    
Cu1   O1    S    
C153  N33   T    
Cu6   O30   S    
C13   S9    S    
C6    C118  S    
C14   S10   S    
C57   O39   A    
