data_mof_unit_pretest_208.cif
_audit_creation_date              2012-12-10T16:43:25-0500
_audit_creation_method            fapswitch 2.2
_symmetry_space_group_name_H-M    P1
_symmetry_Int_Tables_number       1
_space_group_crystal_system       triclinic
_cell_length_a                    10.840981
_cell_length_b                    8.672852
_cell_length_c                    7.490269
_cell_angle_alpha                 102.426098
_cell_angle_beta                  96.521176
_cell_angle_gamma                 93.165091
_cell_volume                      680.998020499

loop_
_atom_site_label
_atom_site_type_symbol
_atom_type_description
_atom_site_fract_x
_atom_site_fract_y
_atom_site_fract_z
_atom_type_partial_charge
C1    C     C_R   0.495815 0.199921 0.453580 0.855384
C2    C     C_R   0.082407 0.594421 0.661722 0.079951
C3    C     C_R   0.130770 0.523405 0.499996 -0.182272
C4    C     C_R   0.051450 0.444624 0.343058 -0.294607
C5    C     C_R   0.923956 0.429947 0.345526 0.459676
C6    C     C_R   0.874130 0.489499 0.510448 -0.230459
C7    C     C_2   0.493093 0.032176 0.427349 -0.389361
C8    C     C_2   0.506500 0.967858 0.572734 -0.369619
C9    C     C_R   0.263553 0.510425 0.500306 0.789673
C10   C     C_R   0.504097 0.800096 0.546436 0.840809
C11   C     C_R   0.738237 0.494904 0.502108 0.795009
C12   C     C_R   0.156932 0.699009 0.811475 -0.140403
C13   C     C_R   0.114768 0.740767 0.982471 -0.149271
C14   C     C_R   0.999477 0.677000 0.007027 -0.171762
C15   C     C_R   0.921709 0.584058 0.856612 -0.143264
C16   C     C_R   0.956732 0.556066 0.676212 0.032163
Cu1   Cu    Cu3+1 0.513920 0.517380 0.684380 1.024004
Cu2   Cu    Cu3+1 0.486080 0.482620 0.315620 1.032540
H1    H     H_    0.088221 0.391403 0.217522 0.172886
H2    H     H_    0.247994 0.749306 0.797768 0.155881
H3    H     H_    0.970188 0.699665 0.143015 0.137814
H4    H     H_    0.479829 0.961293 0.286957 0.210273
H5    H     H_    0.519524 0.038798 0.713170 0.209782
N1    N     N_2   0.465100 0.456430 0.038520 0.163864
N2    N     N_2   0.534900 0.543570 0.961480 0.162156
O1    O     O_R   0.509050 0.286130 0.619770 -0.530391
O2    O     O_R   0.485540 0.256780 0.308360 -0.586249
O3    O     O_R   0.331410 0.514680 0.655740 -0.574649
O4    O     O_R   0.307900 0.485330 0.344330 -0.615475
O5    O     O_R   0.514460 0.743220 0.691640 -0.587582
O6    O     O_R   0.490950 0.713870 0.380230 -0.539298
O7    O     O_R   0.692100 0.514670 0.655670 -0.629507
O8    O     O_R   0.668590 0.485320 0.344260 -0.531120
O9    O     O_3   0.553297 0.694212 0.058782 -0.477500
C17   C     C_3   0.679397 0.743403 0.065875 -0.181578
H6    H     H_    0.697881 0.863709 0.156279 0.118139
H7    H     H_    0.703086 0.751289 0.927922 0.169246
H8    H     H_    0.739835 0.664481 0.128063 0.156197
H9    H     H_    0.173686 0.817125 0.097576 0.138358
H10   H     H_    0.839439 0.526799 0.888687 0.196492
O10   O     O_3   0.848645 0.358285 0.183938 -0.572778
C18   C     C_3   0.831520 0.194639 0.176974 -0.298014
H11   H     H_    0.769718 0.137466 0.048607 0.190652
H12   H     H_    0.785276 0.171525 0.295083 0.146615
H13   H     H_    0.921476 0.138758 0.172770 0.141262
O11   O     O_3   0.426033 0.313606 0.930056 -0.477057
C19   C     C_3   0.301274 0.280986 0.953909 -0.136137
H14   H     H_    0.245695 0.385201 0.952574 0.151661
H15   H     H_    0.295189 0.238298 0.082011 0.157511
H16   H     H_    0.258550 0.184424 0.837142 0.120356

loop_
_geom_bond_atom_site_label_1
_geom_bond_atom_site_label_2
_ccdc_geom_bond_type
C3    C9    S    
C7    H4    S    
C2    C16   A    
O10   C18   S    
C10   O5    A    
C17   H6    S    
C14   C15   A    
C9    O4    A    
N2    O9    S    
N1    O11   S    
C12   H2    S    
C2    C3    A    
C2    C12   A    
C7    C8    D    
C19   H15   S    
Cu2   O4    S    
C13   C14   A    
N1    N2    D    
Cu1   O5    S    
C4    H1    S    
C5    C6    A    
C18   H12   S    
Cu2   N1    S    
Cu1   O1    S    
C14   H3    S    
C17   H7    S    
C11   O7    A    
Cu1   Cu2   S    
C19   H16   S    
C1    O1    A    
Cu2   O8    S    
C15   H10   S    
C13   H9    S    
C18   H11   S    
C6    C16   A    
C3    C4    A    
C11   O8    A    
C8    H5    S    
C12   C13   A    
C8    C10   S    
O9    C17   S    
O11   C19   S    
C6    C11   S    
C1    O2    A    
Cu1   O7    S    
C5    O10   S    
C17   H8    S    
C4    C5    A    
Cu2   O6    S    
C1    C7    S    
Cu1   O3    S    
C10   O6    A    
C15   C16   A    
Cu2   O2    S    
C19   H14   S    
C9    O3    A    
Cu1   N2    S    
C18   H13   S    
