data_mof_unit_pretest_905.cif
_audit_creation_date              2012-12-10T19:29:38-0500
_audit_creation_method            fapswitch 2.2
_symmetry_space_group_name_H-M    P1
_symmetry_Int_Tables_number       1
_space_group_crystal_system       triclinic
_cell_length_a                    22.223362
_cell_length_b                    22.31602
_cell_length_c                    14.960045
_cell_angle_alpha                 90.000241
_cell_angle_beta                  90.722658
_cell_angle_gamma                 90.001014
_cell_volume                      7418.64957418

loop_
_atom_site_label
_atom_site_type_symbol
_atom_type_description
_atom_site_fract_x
_atom_site_fract_y
_atom_site_fract_z
_atom_type_partial_charge
C1    C     C_R   0.418752 0.918864 0.499619 0.895021
C2    C     C_R   0.581252 0.081132 0.500388 0.894696
C3    C     C_R   0.581244 0.918861 0.500386 0.894921
C4    C     C_R   0.418748 0.081133 0.499612 0.894487
C5    C     C_R   0.918757 0.418861 0.499615 0.894848
C6    C     C_R   0.081255 0.581130 0.500386 0.894621
C7    C     C_R   0.081243 0.418860 0.500384 0.894617
C8    C     C_R   0.918752 0.581136 0.499614 0.894937
C9    C     C_1   0.336500 0.162636 0.498367 0.163697
C10   C     C_1   0.663422 0.837295 0.501558 0.163846
C11   C     C_1   0.663504 0.162632 0.501637 0.163830
C12   C     C_1   0.336547 0.837317 0.498596 0.162313
C13   C     C_1   0.836543 0.662677 0.498412 0.163539
C14   C     C_1   0.163395 0.337269 0.501510 0.164740
C15   C     C_1   0.163460 0.662680 0.501643 0.164288
C16   C     C_1   0.836615 0.337260 0.498480 0.164764
C17   C     C_1   0.499873 0.999971 0.189940 0.319762
C18   C     C_1   0.500134 0.999984 0.810058 0.322201
C19   C     C_1   0.999857 0.499993 0.189943 0.321919
C20   C     C_1   0.000140 0.499989 0.810056 0.322168
C21   C     C_3   0.471448 0.951561 0.969485 0.394366
C22   C     C_3   0.528565 0.048280 0.030494 0.297861
C23   C     C_3   0.527866 0.951140 0.030466 0.368082
C24   C     C_3   0.472166 0.048696 0.969544 0.295933
C25   C     C_3   0.971608 0.451530 0.969499 0.402319
C26   C     C_3   0.028383 0.548428 0.030492 0.297539
C27   C     C_3   0.028003 0.451312 0.030495 0.402363
C28   C     C_3   0.971994 0.548645 0.969506 0.298613
C29   C     C_3   0.699751 0.727589 0.534148 0.299477
C30   C     C_3   0.299937 0.272126 0.464731 0.400074
C31   C     C_3   0.299694 0.728113 0.463815 0.298033
C32   C     C_3   0.699912 0.272265 0.534569 0.399982
C33   C     C_3   0.199923 0.227753 0.535048 0.298619
C34   C     C_3   0.800208 0.772379 0.465793 0.400057
C35   C     C_3   0.800244 0.227598 0.465642 0.298274
C36   C     C_3   0.200269 0.771924 0.536731 0.396516
C37   C     C_3   0.229886 0.203020 0.449877 -0.399183
C38   C     C_3   0.769722 0.796598 0.550861 -0.399188
C39   C     C_3   0.769911 0.203230 0.550755 -0.398849
C40   C     C_3   0.229575 0.797337 0.451486 -0.390574
C41   C     C_3   0.730237 0.703370 0.449069 -0.398608
C42   C     C_3   0.269975 0.296856 0.549891 -0.400235
C43   C     C_3   0.270412 0.702691 0.549054 -0.392572
C44   C     C_3   0.730243 0.296631 0.449470 -0.400002
C45   C     C_1   0.374190 0.125234 0.498737 -0.069085
C46   C     C_1   0.625764 0.874726 0.501242 -0.067820
C47   C     C_1   0.625812 0.125231 0.501265 -0.068850
C48   C     C_1   0.374217 0.874740 0.498805 -0.067760
C49   C     C_1   0.874215 0.625256 0.498752 -0.068830
C50   C     C_1   0.125750 0.374712 0.501226 -0.067726
C51   C     C_1   0.125794 0.625251 0.501257 -0.067846
C52   C     C_1   0.874256 0.374708 0.498769 -0.067634
C53   C     C_3   0.261163 0.231866 0.583220 0.293895
C54   C     C_3   0.739250 0.768556 0.416742 0.392431
C55   C     C_3   0.739209 0.231499 0.416851 0.293594
C56   C     C_3   0.261897 0.767398 0.583781 0.359673
C57   C     C_3   0.760701 0.731408 0.583193 0.292010
C58   C     C_3   0.238688 0.268011 0.416552 0.398094
C59   C     C_3   0.238095 0.732639 0.416794 0.288909
C60   C     C_3   0.760957 0.268363 0.583365 0.397982
C61   C     C_3   0.291268 0.208041 0.498828 -0.161586
C62   C     C_3   0.708635 0.791872 0.501036 -0.160649
C63   C     C_3   0.708738 0.208035 0.501172 -0.161618
C64   C     C_3   0.291329 0.791894 0.499246 -0.150055
C65   C     C_3   0.791323 0.708092 0.498905 -0.160822
C66   C     C_3   0.208593 0.291834 0.500955 -0.161061
C67   C     C_3   0.208657 0.708126 0.501255 -0.155564
C68   C     C_3   0.791418 0.291824 0.499032 -0.160983
C69   C     C_3   0.442481 0.000337 0.029123 -0.382161
C70   C     C_3   0.557543 0.999513 0.970880 -0.385206
C71   C     C_3   0.942455 0.500201 0.029106 -0.391176
C72   C     C_3   0.057539 0.499751 0.970892 -0.391411
C73   C     C_3   0.499792 0.999928 0.089927 -0.224099
C74   C     C_3   0.500229 0.999948 0.910068 -0.228987
C75   C     C_3   0.999754 0.499984 0.089941 -0.234009
C76   C     C_3   0.000241 0.499976 0.910056 -0.234369
N1    N     N_1   0.500020 0.000000 0.268010 -0.070785
N2    N     N_1   0.499980 0.000000 0.731990 -0.070544
N3    N     N_1   0.000020 0.500000 0.268010 -0.070934
N4    N     N_1   0.999980 0.500000 0.731990 -0.070871
O1    O     O_R   0.438390 0.938390 0.574460 -0.578352
O2    O     O_R   0.561610 0.061610 0.425540 -0.580480
O3    O     O_R   0.561610 0.938390 0.425540 -0.578575
O4    O     O_R   0.438390 0.061610 0.574460 -0.580418
O5    O     O_R   0.938390 0.438390 0.574460 -0.578639
O6    O     O_R   0.061610 0.561610 0.425540 -0.580775
O7    O     O_R   0.061610 0.438390 0.425540 -0.578744
O8    O     O_R   0.938390 0.561610 0.574460 -0.580175
O9    O     O_R   0.438400 0.938390 0.425520 -0.612302
O10   O     O_R   0.561600 0.061610 0.574480 -0.612982
O11   O     O_R   0.561600 0.938390 0.574480 -0.612992
O12   O     O_R   0.438400 0.061610 0.425520 -0.613037
O13   O     O_R   0.938400 0.438390 0.425520 -0.612834
O14   O     O_R   0.061600 0.561610 0.574480 -0.612432
O15   O     O_R   0.061600 0.438390 0.574480 -0.612812
O16   O     O_R   0.938400 0.561610 0.425520 -0.613001
Zn1   Zn    Zn3+2 0.500000 0.000000 0.599450 1.090334
Zn2   Zn    Zn3+2 0.500000 0.000000 0.400550 1.090418
Zn3   Zn    Zn3+2 0.000000 0.500000 0.599450 1.090473
Zn4   Zn    Zn3+2 0.000000 0.500000 0.400550 1.089949
H1    H     H_    0.604864 0.999174 0.948007 0.223970
H2    H     H_    0.395159 0.000678 0.051992 0.222208
H3    H     H_    0.104874 0.499555 0.948080 0.223636
H4    H     H_    0.895120 0.500379 0.051920 0.223179
H5    H     H_    0.214214 0.164302 0.409226 0.224728
H6    H     H_    0.785153 0.835069 0.592231 0.224212
H7    H     H_    0.785412 0.164692 0.591924 0.224879
H8    H     H_    0.213628 0.836402 0.411827 0.222791
H9    H     H_    0.714808 0.664902 0.407693 0.224938
H10   H     H_    0.285651 0.335574 0.590538 0.224153
H11   H     H_    0.286361 0.663615 0.588685 0.225433
H12   H     H_    0.714736 0.335172 0.408309 0.224104
S1    S     S_3+6 0.631420 0.698879 0.578415 0.147739
O17   O     O_2   0.613672 0.735642 0.657962 -0.180608
O18   O     O_2   0.582472 0.702292 0.508383 -0.208559
O19   O     O_3   0.641142 0.627235 0.610070 -0.418842
H13   H     H_    0.657447 0.606820 0.556803 0.355814
S2    S     S_3+6 0.367944 0.300577 0.419238 0.126256
O20   O     O_2   0.417528 0.295446 0.488044 -0.226061
O21   O     O_2   0.384069 0.264914 0.337779 -0.207293
O22   O     O_3   0.358189 0.372893 0.391236 -0.474602
H14   H     H_    0.396957 0.385348 0.365087 0.410342
S3    S     S_3+6 0.367345 0.700043 0.416522 0.148072
O23   O     O_2   0.384002 0.737946 0.337626 -0.178386
O24   O     O_2   0.417254 0.702437 0.485136 -0.208676
O25   O     O_3   0.357121 0.628875 0.382860 -0.418307
H15   H     H_    0.341510 0.607708 0.435946 0.355763
S4    S     S_3+6 0.631703 0.300902 0.579145 0.126168
O26   O     O_2   0.582405 0.295478 0.509937 -0.225779
O27   O     O_2   0.615238 0.265576 0.660775 -0.207422
O28   O     O_3   0.641330 0.373337 0.606563 -0.474428
H16   H     H_    0.602565 0.385794 0.632727 0.410483
S5    S     S_3+6 0.131877 0.199317 0.580623 0.148397
O29   O     O_2   0.114614 0.236554 0.659924 -0.178471
O30   O     O_2   0.082505 0.202315 0.511207 -0.208319
O31   O     O_3   0.141802 0.127864 0.613100 -0.419035
H17   H     H_    0.157745 0.107127 0.559861 0.355776
S6    S     S_3+6 0.868504 0.801100 0.421622 0.126475
O32   O     O_2   0.917664 0.795553 0.491025 -0.225450
O33   O     O_2   0.885133 0.765928 0.339923 -0.206914
O34   O     O_3   0.858926 0.873583 0.394461 -0.474348
H18   H     H_    0.897880 0.886209 0.369097 0.410710
S7    S     S_3+6 0.868493 0.198968 0.420996 0.148563
O35   O     O_2   0.886101 0.235866 0.341517 -0.178190
O36   O     O_2   0.917564 0.202263 0.490851 -0.208394
O37   O     O_3   0.858713 0.127377 0.389106 -0.418536
H19   H     H_    0.842434 0.106888 0.442328 0.355785
S8    S     S_3+6 0.132369 0.799800 0.583347 0.099293
O38   O     O_2   0.083757 0.799655 0.512609 -0.212937
O39   O     O_2   0.113945 0.760400 0.659714 -0.257850
O40   O     O_3   0.143591 0.870128 0.620114 -0.484404
H20   H     H_    0.104943 0.881994 0.647220 0.410558
S9    S     S_3+6 0.722979 0.793935 0.306045 0.138948
O41   O     O_2   0.657689 0.782782 0.284618 -0.209585
O42   O     O_2   0.735974 0.859863 0.299652 -0.202084
O43   O     O_3   0.765995 0.756249 0.233514 -0.471652
H21   H     H_    0.755401 0.773138 0.174141 0.415558
S10   S     S_3+6 0.278050 0.207114 0.694119 0.156786
O44   O     O_2   0.267336 0.140791 0.700390 -0.174087
O45   O     O_2   0.342867 0.220157 0.716330 -0.199174
O46   O     O_3   0.233637 0.242709 0.767109 -0.420069
H22   H     H_    0.239254 0.285885 0.754325 0.355770
S11   S     S_3+6 0.280383 0.791224 0.694575 0.141490
O47   O     O_2   0.345785 0.778915 0.713413 -0.179889
O48   O     O_2   0.269064 0.857369 0.703288 -0.217896
O49   O     O_3   0.238466 0.753330 0.768414 -0.468304
H23   H     H_    0.204596 0.780359 0.782777 0.410797
S12   S     S_3+6 0.722803 0.206268 0.306043 0.156995
O50   O     O_2   0.733551 0.139922 0.300502 -0.173660
O51   O     O_2   0.658077 0.219207 0.283088 -0.199106
O52   O     O_3   0.767529 0.241554 0.233145 -0.419706
H24   H     H_    0.761832 0.284785 0.245437 0.355723
S13   S     S_3+6 0.221722 0.292736 0.305737 0.130573
O53   O     O_2   0.156306 0.281472 0.285368 -0.220300
O54   O     O_2   0.234679 0.358620 0.298288 -0.202904
O55   O     O_3   0.264266 0.254610 0.233098 -0.475294
H25   H     H_    0.253210 0.271079 0.173640 0.408163
S14   S     S_3+6 0.776915 0.705988 0.693961 0.158346
O56   O     O_2   0.766145 0.639634 0.699207 -0.174018
O57   O     O_2   0.841608 0.718880 0.717202 -0.198616
O58   O     O_3   0.732072 0.741156 0.766822 -0.413693
H26   H     H_    0.737824 0.784408 0.754749 0.357140
S15   S     S_3+6 0.777420 0.293580 0.694092 0.130587
O59   O     O_2   0.842738 0.282397 0.715263 -0.219403
O60   O     O_2   0.764445 0.359502 0.700723 -0.203806
O61   O     O_3   0.734525 0.255796 0.766675 -0.474855
H27   H     H_    0.744633 0.273147 0.825931 0.408438
S16   S     S_3+6 0.220317 0.708818 0.305731 0.158637
O62   O     O_2   0.230928 0.642549 0.298042 -0.172751
O63   O     O_2   0.155350 0.722073 0.284887 -0.198609
O64   O     O_3   0.264171 0.744994 0.232624 -0.415237
H28   H     H_    0.258840 0.788053 0.246494 0.355805
S17   S     S_3+6 0.566537 0.886668 0.071872 0.137590
O65   O     O_2   0.619668 0.906222 0.127696 -0.186637
O66   O     O_2   0.524950 0.850303 0.128885 -0.217327
O67   O     O_3   0.590894 0.845107 0.985780 -0.465677
H29   H     H_    0.561864 0.811611 0.980139 0.413954
S18   S     S_3+6 0.433802 0.113541 0.928738 0.154195
O68   O     O_2   0.475355 0.149054 0.870638 -0.172967
O69   O     O_2   0.379612 0.094794 0.874542 -0.204058
O70   O     O_3   0.411885 0.156307 0.014885 -0.412307
H30   H     H_    0.388436 0.129081 0.053448 0.356434
S19   S     S_3+6 0.431852 0.887637 0.928177 0.109616
O71   O     O_2   0.376942 0.908038 0.877033 -0.205317
O72   O     O_2   0.471941 0.852521 0.867303 -0.248278
O73   O     O_3   0.410978 0.844482 0.014475 -0.476639
H31   H     H_    0.390331 0.809693 0.986698 0.418245
S20   S     S_3+6 0.567866 0.112558 0.071364 0.154172
O74   O     O_2   0.526832 0.148648 0.129494 -0.172944
O75   O     O_2   0.621776 0.093019 0.125547 -0.204440
O76   O     O_3   0.590405 0.155027 0.985257 -0.412522
H32   H     H_    0.613466 0.127476 0.946683 0.356462
S21   S     S_3+6 0.066616 0.386676 0.071326 0.127760
O77   O     O_2   0.119060 0.406096 0.128728 -0.226707
O78   O     O_2   0.024415 0.349371 0.125871 -0.199277
O79   O     O_3   0.091606 0.346340 0.984483 -0.471823
H33   H     H_    0.112107 0.311325 0.011858 0.410656
S22   S     S_3+6 0.933435 0.613356 0.928633 0.154752
O80   O     O_2   0.974931 0.649060 0.870700 -0.174299
O81   O     O_2   0.879396 0.594424 0.874246 -0.203761
O82   O     O_3   0.911228 0.655985 0.014757 -0.411535
H34   H     H_    0.887281 0.628804 0.052710 0.357400
S23   S     S_3+6 0.932484 0.387197 0.928659 0.127790
O83   O     O_2   0.880194 0.407027 0.871262 -0.226750
O84   O     O_2   0.974387 0.349565 0.874104 -0.198967
O85   O     O_3   0.907178 0.347058 0.015496 -0.472327
H35   H     H_    0.886428 0.312189 0.988116 0.410735
S24   S     S_3+6 0.067453 0.612846 0.071351 0.156335
O86   O     O_2   0.026264 0.648838 0.129374 -0.171985
O87   O     O_2   0.121385 0.593498 0.125641 -0.202869
O88   O     O_3   0.089926 0.655344 0.985236 -0.412551
H36   H     H_    0.113113 0.627849 0.946741 0.357312

loop_
_geom_bond_atom_site_label_1
_geom_bond_atom_site_label_2
_ccdc_geom_bond_type
S7    O37   S    
S10   O45   D    
S19   O71   D    
C9    C45   T    
O25   H15   S    
C26   C72   S    
O70   H30   S    
C21   S19   S    
C11   C47   T    
S11   O47   D    
C8    O16   A    
S8    O40   S    
O52   H24   S    
S4    O26   D    
C54   S9    S    
S24   O87   D    
O46   H22   S    
C36   C67   S    
O12   Zn2   S    
S3    O23   D    
C13   C65   S    
S13   O53   D    
C39   H7    S    
S19   O72   D    
C56   S11   S    
C53   S10   S    
C31   C43   S    
S16   O64   S    
C9    C61   S    
O4    Zn1   S    
O14   Zn3   S    
C3    O11   A    
O43   H21   S    
S11   O48   D    
S8    O39   D    
O37   H19   S    
C11   C63   S    
S15   O60   D    
C42   C53   S    
C57   S14   S    
C12   C64   S    
O15   Zn3   S    
S3    O24   D    
C39   C60   S    
C1    O1    A    
S7    O35   D    
C30   C58   S    
O19   H13   S    
C20   C76   S    
S16   O63   D    
O7    Zn4   S    
C31   C59   S    
C2    O10   A    
S2    O20   D    
S10   O46   S    
C59   C67   S    
C53   C61   S    
C36   S8    S    
S12   O52   S    
C7    O7    A    
S9    O41   D    
S23   O83   D    
C26   S24   S    
S20   O74   D    
C6    O14   A    
C71   H4    S    
C55   C63   S    
C70   C74   S    
S5    O31   S    
C28   S22   S    
O40   H20   S    
C56   C64   S    
C5    C52   S    
C69   C73   S    
S18   O68   D    
C16   C68   S    
C15   C51   T    
C6    C51   S    
S9    O42   D    
O6    Zn4   S    
O10   Zn1   S    
C37   C58   S    
C72   C76   S    
C40   H8    S    
S1    O19   S    
C5    O5    A    
C5    O13   A    
C60   S15   S    
S12   O51   D    
N2    Zn1   S    
C24   S18   S    
C18   C74   S    
C40   C59   S    
C41   H9    S    
C17   C73   S    
O2    Zn2   S    
C23   C70   S    
C10   C62   S    
C43   H11   S    
C55   S12   S    
C23   C73   S    
C14   C50   T    
C27   C75   S    
C34   C65   S    
S24   O86   D    
C58   C66   S    
C24   C69   S    
S14   O56   D    
S23   O85   S    
C4    C45   S    
S13   O54   D    
C33   C53   S    
S19   O73   S    
C70   H1    S    
C20   N4    T    
C35   C55   S    
O64   H28   S    
S14   O58   S    
N3    Zn4   S    
C36   C40   S    
S11   O49   S    
O79   H33   S    
C32   C63   S    
S15   O61   S    
C69   H2    S    
O73   H31   S    
O67   H29   S    
S3    O25   S    
C41   C65   S    
C54   C62   S    
S17   O66   D    
O58   H26   S    
C21   C74   S    
O3    Zn2   S    
C33   C37   S    
C21   C69   S    
S16   O62   D    
C8    O8    A    
S2    O22   S    
S10   O44   D    
C38   H6    S    
C35   C39   S    
S15   O59   D    
C37   H5    S    
O82   H34   S    
O5    Zn3   S    
C27   S21   S    
C38   C57   S    
S22   O81   D    
O76   H32   S    
C4    O4    A    
S21   O77   D    
C18   N2    T    
S17   O67   S    
C15   C67   S    
C33   C66   S    
C23   S17   S    
S18   O70   S    
C17   N1    T    
C26   C75   S    
C14   C66   S    
C22   S20   S    
N1    Zn2   S    
O85   H35   S    
O11   Zn1   S    
S9    O43   S    
C19   N3    T    
O13   Zn4   S    
C60   C68   S    
O22   H14   S    
S6    O33   D    
C25   C71   S    
C44   H12   S    
C43   C67   S    
O55   H25   S    
C29   C57   S    
C34   C54   S    
C21   C23   S    
N4    Zn3   S    
C3    O3    A    
S5    O29   D    
C13   C49   T    
C2    O2    A    
C58   S13   S    
C32   C60   S    
O28   H16   S    
C28   C76   S    
S4    O28   S    
C10   C46   T    
C7    O15   A    
C37   C61   S    
S22   O82   S    
S5    O30   D    
S1    O17   D    
S21   O79   S    
S7    O36   D    
C29   S1    S    
C29   C62   S    
S12   O50   D    
C1    O9    A    
C29   C41   S    
C34   C38   S    
C31   C64   S    
C59   S16   S    
C16   C52   T    
C7    C50   S    
C57   C65   S    
O31   H17   S    
S6    O34   S    
S4    O27   D    
S14   O57   D    
S23   O84   D    
C1    C48   S    
C72   H3    S    
C2    C47   S    
C25   C27   S    
C39   C63   S    
C3    C46   S    
C26   C28   S    
C6    O6    A    
O9    Zn2   S    
C25   C76   S    
C32   S4    S    
C19   C75   S    
C42   H10   S    
S21   O78   D    
C31   S3    S    
O34   H18   S    
C71   C75   S    
C44   C55   S    
C24   C74   S    
S22   O80   D    
O49   H23   S    
S1    O18   D    
O1    Zn1   S    
C35   C68   S    
S20   O76   S    
C40   C64   S    
O16   Zn4   S    
C36   C56   S    
S13   O55   S    
C12   C48   T    
C34   S6    S    
C25   S23   S    
C22   C24   S    
S8    O38   D    
S2    O21   D    
C41   C54   S    
O8    Zn3   S    
C44   C68   S    
S6    O32   D    
C28   C71   S    
C33   S5    S    
C43   C56   S    
C32   C44   S    
S20   O75   D    
S17   O65   D    
C30   C61   S    
C30   S2    S    
O88   H36   S    
C42   C66   S    
C30   C42   S    
S18   O69   D    
C22   C73   S    
C4    O12   A    
O61   H27   S    
C8    C49   S    
C22   C70   S    
S24   O88   S    
C27   C72   S    
C35   S7    S    
C38   C62   S    
