data_mof_unit_pretest_599.cif
_audit_creation_date              2012-10-26T19:39:05-0400
_audit_creation_method            fapswitch 2.2
_symmetry_space_group_name_H-M    P1
_symmetry_Int_Tables_number       1
_space_group_crystal_system       triclinic
_cell_length_a                    11.774464
_cell_length_b                    12.833274
_cell_length_c                    7.630969
_cell_angle_alpha                 90.003562
_cell_angle_beta                  110.663787
_cell_angle_gamma                 89.998061
_cell_volume                      1078.89636893

loop_
_atom_site_label
_atom_site_type_symbol
_atom_type_description
_atom_site_fract_x
_atom_site_fract_y
_atom_site_fract_z
_atom_type_partial_charge
C1    C     C_R   0.347345 0.852358 0.451707 0.555403
C2    C     C_2   0.738286 0.768912 0.573704 -0.138652
C3    C     C_2   0.738244 0.231133 0.573722 -0.138589
C4    C     C_2   0.261721 0.768894 0.426268 -0.138585
C5    C     C_2   0.761714 0.731088 0.426296 -0.138652
C6    C     C_2   0.238286 0.268912 0.573704 -0.138653
C7    C     C_2   0.238279 0.731106 0.573732 -0.138585
C8    C     C_2   0.761756 0.268867 0.426278 -0.138588
C9    C     C_2   0.327541 0.999958 0.923089 0.716687
C10   C     C_2   0.672459 0.000042 0.076911 0.716672
C11   C     C_2   0.827541 0.499958 0.923089 0.716672
C12   C     C_R   0.652650 0.147646 0.548292 0.555403
C13   C     C_2   0.172459 0.500042 0.076911 0.716687
C14   C     C_R   0.652659 0.852361 0.548290 0.555393
C15   C     C_R   0.347341 0.147639 0.451710 0.555388
C16   C     C_R   0.847350 0.352353 0.451708 0.555403
C17   C     C_R   0.152655 0.647642 0.548293 0.555403
C18   C     C_R   0.152659 0.352361 0.548290 0.555388
C19   C     C_R   0.847341 0.647639 0.451710 0.555394
C20   C     C_2   0.261714 0.231088 0.426296 -0.138653
Cu1   Cu    Cu3+1 0.517640 0.000000 0.687200 1.079543
Cu2   Cu    Cu3+1 0.482360 0.000000 0.312800 1.079547
Cu3   Cu    Cu3+1 0.017640 0.500000 0.687200 1.079547
Cu4   Cu    Cu3+1 0.982360 0.500000 0.312800 1.079543
H1    H     H_    0.717870 0.761492 0.285555 0.150442
H2    H     H_    0.814765 0.000007 0.320526 0.307339
H3    H     H_    0.685235 0.499993 0.679473 0.307339
H4    H     H_    0.314765 0.500008 0.320526 0.307344
H5    H     H_    0.282130 0.238508 0.714445 0.150443
H6    H     H_    0.282076 0.761570 0.714546 0.150419
H7    H     H_    0.718056 0.238324 0.285486 0.150428
H8    H     H_    0.217870 0.261492 0.285555 0.150443
H9    H     H_    0.782130 0.738508 0.714445 0.150442
H10   H     H_    0.781943 0.261676 0.714514 0.150428
H11   H     H_    0.217924 0.738430 0.285453 0.150419
H12   H     H_    0.185235 0.999992 0.679473 0.307344
N1    N     N_2   0.455760 0.000000 0.031460 -0.162501
N2    N     N_2   0.544240 0.000000 0.968540 -0.162500
N3    N     N_2   0.955760 0.500000 0.031460 -0.162500
N4    N     N_2   0.044240 0.500000 0.968540 -0.162501
O1    O     O_R   0.398880 0.887420 0.621600 -0.474486
O2    O     O_R   0.630920 0.112580 0.694560 -0.476903
O3    O     O_R   0.630920 0.887420 0.694560 -0.476976
O4    O     O_R   0.369080 0.112580 0.305440 -0.476976
O5    O     O_R   0.869080 0.387420 0.305440 -0.476903
O6    O     O_R   0.130920 0.612580 0.694560 -0.476903
O7    O     O_R   0.130920 0.387420 0.694560 -0.476976
O8    O     O_R   0.869080 0.612580 0.305440 -0.476976
O9    O     O_2   0.256905 0.999894 0.007765 -0.499933
O10   O     O_R   0.277340 0.000017 0.729612 -0.672752
O11   O     O_2   0.743095 0.000106 0.992235 -0.499932
O12   O     O_R   0.601120 0.112580 0.378400 -0.474482
O13   O     O_R   0.722660 0.999983 0.270388 -0.672767
O14   O     O_2   0.756905 0.499894 0.007765 -0.499932
O15   O     O_R   0.777340 0.500017 0.729612 -0.672766
O16   O     O_2   0.243095 0.500106 0.992235 -0.499933
O17   O     O_R   0.222660 0.499983 0.270388 -0.672753
O18   O     O_R   0.601120 0.887420 0.378400 -0.474428
O19   O     O_R   0.398880 0.112580 0.621600 -0.474433
O20   O     O_R   0.898880 0.387420 0.621600 -0.474482
O21   O     O_R   0.101120 0.612580 0.378400 -0.474486
O22   O     O_R   0.101120 0.387420 0.378400 -0.474433
O23   O     O_R   0.898880 0.612580 0.621600 -0.474428
O24   O     O_R   0.369080 0.887420 0.305440 -0.476903

loop_
_geom_bond_atom_site_label_1
_geom_bond_atom_site_label_2
_ccdc_geom_bond_type
C16   O5    A    
Cu2   O18   S    
C12   O2    A    
Cu3   Cu4   S    
H2    O13   S    
Cu4   O21   S    
C5    C19   S    
C6    C20   D    
C9    O10   S    
C10   N2    S    
C1    C4    S    
C18   O7    A    
C13   O16   D    
C9    N1    S    
C4    H11   S    
C9    O9    D    
C8    C16   S    
C7    H6    S    
H4    O17   S    
C11   N3    S    
Cu2   N1    S    
N1    N2    D    
C11   O14   D    
C4    C7    D    
Cu1   O1    S    
Cu4   O5    S    
C2    H9    S    
C1    O1    A    
C12   O12   A    
C15   O4    A    
Cu1   O19   S    
C20   H8    S    
Cu3   O20   S    
C6    C18   S    
H3    O15   S    
Cu3   O23   S    
C13   O17   S    
C2    C5    D    
Cu3   O7    S    
C10   O11   D    
Cu2   O24   S    
Cu1   O2    S    
Cu4   O8    S    
C1    O24   A    
C6    H5    S    
C11   O15   S    
C17   O6    A    
C14   O3    A    
Cu2   O12   S    
C3    C8    D    
C16   O20   A    
C2    C14   S    
N3    N4    D    
Cu3   O6    S    
C10   O13   S    
C19   O8    A    
C18   O22   A    
C13   N4    S    
Cu4   O22   S    
C3    C12   S    
C3    H10   S    
C17   O21   A    
Cu1   Cu2   S    
Cu1   O3    S    
C8    H7    S    
C15   O19   A    
Cu4   N3    S    
Cu2   O4    S    
Cu1   N2    S    
Cu3   N4    S    
H12   O10   S    
C19   O23   A    
C15   C20   S    
C7    C17   S    
C5    H1    S    
C14   O18   A    
