data_mof_unit_pretest_169.cif
_audit_creation_date              2012-12-11T14:47:55-0500
_audit_creation_method            fapswitch 2.2
_symmetry_space_group_name_H-M    P1
_symmetry_Int_Tables_number       1
_space_group_crystal_system       triclinic
_cell_length_a                    8.283621
_cell_length_b                    15.045594
_cell_length_c                    22.883837
_cell_angle_alpha                 96.476665
_cell_angle_beta                  89.434892
_cell_angle_gamma                 99.591726
_cell_volume                      2794.12301781

loop_
_atom_site_label
_atom_site_type_symbol
_atom_type_description
_atom_site_fract_x
_atom_site_fract_y
_atom_site_fract_z
_atom_type_partial_charge
Ba1   Ba    Ba6+2 0.857590 0.542650 0.472590 1.636756
Ba2   Ba    Ba6+2 0.332250 0.457420 0.527420 1.640392
C1    C     C_3   0.719689 0.881533 0.343963 -0.429825
C2    C     C_3   0.703229 0.782973 0.356880 0.339455
C3    C     C_3   0.472202 0.322640 0.348310 0.298427
C4    C     C_3   0.461127 0.296353 0.282161 -0.367172
C5    C     C_3   0.046101 0.262361 0.686700 0.335256
C6    C     C_3   0.062108 0.235919 0.748291 -0.319603
C7    C     C_3   0.496418 0.215960 0.661512 0.359165
C8    C     C_3   0.442298 0.124477 0.684127 -0.365414
C9    C     C_R   0.348945 0.523300 0.332046 -0.286296
C10   C     C_R   0.134853 0.559568 0.936354 -0.027239
C11   C     C_R   0.081868 0.557020 0.877303 0.596611
C12   C     C_3   0.128493 0.775790 0.313968 0.358219
C13   C     C_R   0.940126 0.404762 0.879784 0.571057
C14   C     C_R   0.986819 0.406591 0.939365 -0.015822
C15   C     C_R   0.085553 0.484183 0.967634 -0.051826
C16   C     C_R   0.236197 0.636125 0.964992 -0.076448
C17   C     C_R   0.287838 0.637507 0.023120 -0.073531
C18   C     C_R   0.237880 0.562928 0.055077 -0.014000
C19   C     C_R   0.135578 0.486329 0.027406 -0.052872
C20   C     C_R   0.937996 0.331803 0.971244 -0.073209
C21   C     C_R   0.985885 0.334302 0.030015 -0.075578
C22   C     C_R   0.085127 0.411477 0.058999 -0.027293
C23   C     C_3   0.066583 0.819805 0.262676 -0.313785
C24   C     C_R   0.135013 0.415237 0.118656 0.592047
C25   C     C_R   0.288494 0.564059 0.114055 0.576819
C26   C     C_2   0.785477 0.437302 0.767717 -0.086115
C27   C     C_3   0.754139 0.410692 0.702784 -0.050888
C28   C     C_1   0.006993 0.513986 0.685031 0.036254
C29   C     C_2   0.056077 0.514050 0.740695 -0.106795
C30   C     C_2   0.938111 0.476681 0.786641 0.189130
C31   C     C_R   0.433353 0.536025 0.231150 -0.124613
C32   C     C_R   0.468821 0.551822 0.291661 -0.016378
C33   C     C_R   0.193469 0.478839 0.313396 0.029441
C34   C     C_3   0.237083 0.736347 0.600626 0.311936
C35   C     C_R   0.153970 0.468925 0.252551 -0.097297
C36   C     C_R   0.273141 0.498440 0.210115 0.200073
C37   C     C_2   0.863009 0.469991 0.664759 -0.287974
C38   C     C_R   0.751956 0.234779 0.525302 -0.285843
C39   C     C_R   0.842373 0.174741 0.546058 0.009065
C40   C     C_R   0.781907 0.081252 0.538904 -0.127225
C41   C     C_R   0.632926 0.046350 0.507594 0.013183
C42   C     C_R   0.552224 0.109368 0.483144 -0.115323
C43   C     C_R   0.611047 0.201806 0.492036 0.042172
C44   C     C_R   0.412857 0.913490 0.468423 -0.134236
C45   C     C_3   0.260839 0.838539 0.617195 -0.371793
C46   C     C_R   0.351795 0.820891 0.458605 0.021349
C47   C     C_R   0.584219 0.788365 0.508950 0.055270
C48   C     C_R   0.649128 0.880833 0.517961 -0.128949
C49   C     C_R   0.565693 0.946067 0.497379 0.000784
C50   C     C_R   0.438772 0.758465 0.477865 -0.288816
C51   C     C_3   0.959445 0.265430 0.403678 0.309930
C52   C     C_3   0.928778 0.162934 0.387987 -0.382697
C53   C     C_3   0.715411 0.655068 0.648099 0.301552
C54   C     C_3   0.725398 0.677154 0.714614 -0.358372
H1    H     H_    0.796401 0.778455 0.390347 0.114019
H2    H     H_    0.344130 0.858225 0.655916 0.125197
H3    H     H_    0.314954 0.874407 0.580248 0.070020
H4    H     H_    0.140953 0.859877 0.628007 0.130986
H5    H     H_    0.844062 0.288337 0.417735 0.001654
H6    H     H_    0.050516 0.282897 0.440051 0.074707
H7    H     H_    0.830065 0.143211 0.354219 0.129716
H8    H     H_    0.891739 0.128263 0.427277 0.067665
H9    H     H_    0.042410 0.140076 0.370482 0.129064
H10   H     H_    0.834183 0.638704 0.631885 0.012217
H11   H     H_    0.617491 0.595565 0.637364 0.078037
H12   H     H_    0.849554 0.915105 0.346588 0.143352
H13   H     H_    0.747936 0.617247 0.735405 0.070780
H14   H     H_    0.608328 0.696338 0.731503 0.135189
H15   H     H_    0.581601 0.764152 0.375992 -0.025872
H16   H     H_    0.652031 0.920149 0.377125 0.086338
H17   H     H_    0.350795 0.336487 0.364070 0.020718
H18   H     H_    0.565463 0.384890 0.357411 0.053000
H19   H     H_    0.368124 0.234385 0.271763 0.137574
H20   H     H_    0.424982 0.351978 0.260081 0.071434
H21   H     H_    0.581820 0.283071 0.265064 0.130189
H22   H     H_    0.669314 0.885407 0.299713 0.133105
H23   H     H_    0.144459 0.886327 0.258197 0.105151
H24   H     H_    0.132979 0.326259 0.682947 0.088221
H25   H     H_    0.918691 0.273442 0.680467 -0.051363
H26   H     H_    0.177440 0.209090 0.753180 0.146674
H27   H     H_    0.065060 0.296610 0.780669 0.119140
H28   H     H_    0.957013 0.183331 0.757543 0.121060
H29   H     H_    0.632570 0.228079 0.660722 -0.063743
H30   H     H_    0.448290 0.212173 0.615960 0.075899
H31   H     H_    0.494930 0.071324 0.656161 0.069788
H32   H     H_    0.306982 0.106123 0.682576 0.150764
H33   H     H_    0.058912 0.705744 0.313058 0.091729
H34   H     H_    0.485787 0.126866 0.730117 0.124641
H35   H     H_    0.944745 0.275306 0.052701 0.123706
H36   H     H_    0.861927 0.270823 0.950844 0.123927
H37   H     H_    0.366411 0.697863 0.043154 0.123772
H38   H     H_    0.530569 0.555047 0.200824 0.127750
H39   H     H_    0.277023 0.695260 0.942398 0.124294
H40   H     H_    0.182970 0.539346 0.752856 0.139450
H41   H     H_    0.691844 0.413369 0.798373 0.124658
H42   H     H_    0.030991 0.438161 0.238636 0.124364
H43   H     H_    0.378987 0.532915 0.378472 0.082804
H44   H     H_    0.835333 0.460505 0.618006 0.080537
H45   H     H_    0.334193 0.957653 0.454974 0.086621
H46   H     H_    0.856371 0.037992 0.556248 0.076654
H47   H     H_    0.761704 0.899630 0.542768 0.084780
H48   H     H_    0.447075 0.089225 0.454630 0.069031
H49   H     H_    0.387630 0.686972 0.472161 0.072186
H50   H     H_    0.799089 0.306790 0.530365 0.064711
H51   H     H_    0.065144 0.774938 0.220650 0.086835
H52   H     H_    0.940395 0.831931 0.269101 0.154902
H53   H     H_    0.357374 0.716081 0.590690 0.004642
H54   H     H_    0.155403 0.718519 0.561395 0.068278
N1    N     N_R   0.986894 0.479695 0.848797 -0.422677
N2    N     N_R   0.231776 0.492442 0.146908 -0.420631
O1    O     O_2   0.888680 0.450300 0.360330 -0.457305
O2    O     O_3   0.680973 0.730824 0.623364 -0.632563
O3    O     O_3   0.097640 0.828181 0.366604 -0.615496
O4    O     O_2   0.301020 0.549730 0.639710 -0.462110
O5    O     O_3   0.060450 0.548840 0.568630 -0.496821
O6    O     O_3   0.513610 0.385220 0.603380 -0.476796
O7    O     O_3   0.168392 0.694334 0.648516 -0.624312
O8    O     O_3   0.611400 0.391150 0.470030 -0.477800
O9    O     O_3   0.093990 0.338690 0.574280 -0.492663
O10   O     O_2   0.177446 0.177744 0.536712 -0.479868
O11   O     O_3   0.083250 0.192627 0.645440 -0.601793
O12   O     O_3   0.129270 0.451230 0.431380 -0.494179
O13   O     O_3   0.578310 0.608920 0.529980 -0.490722
O14   O     O_2   0.337770 0.279070 0.470480 -0.459587
O15   O     O_3   0.516870 0.250727 0.374957 -0.639874
O16   O     O_2   0.436134 0.460407 0.709083 -0.496461
O17   O     O_3   0.435370 0.284378 0.698154 -0.593658
O18   O     O_2   0.118657 0.624426 0.851696 -0.595688
O19   O     O_2   0.859017 0.335468 0.855459 -0.616599
O20   O     O_2   0.094560 0.348797 0.144898 -0.597581
O21   O     O_2   0.384020 0.629618 0.135783 -0.626201
O22   O     O_3   0.676100 0.614850 0.396630 -0.491612
O23   O     O_2   0.813438 0.564974 0.295794 -0.489386
O24   O     O_3   0.016804 0.305341 0.353635 -0.627853
O25   O     O_3   0.721700 0.724796 0.305220 -0.621719
O26   O     O_2   0.851930 0.720960 0.529560 -0.455837
O27   O     O_3   0.095720 0.661380 0.425720 -0.489636
O28   O     O_2   0.033008 0.821873 0.476059 -0.483211
P1    P     P_3+3 0.054670 0.423610 0.368990 0.999362
P2    P     P_3+3 0.674060 0.707690 0.546600 0.981737
P3    P     P_3+3 0.144644 0.780698 0.430009 0.924288
P4    P     P_3+3 0.135040 0.576460 0.631020 0.993089
P5    P     P_3+3 0.049383 0.220562 0.575006 0.946162
P6    P     P_3+3 0.670401 0.611788 0.320512 0.940085
P7    P     P_3+3 0.520068 0.278521 0.451294 0.953018
P8    P     P_3+3 0.534614 0.389116 0.679389 0.945812
H55   H     H_    0.826949 0.734259 0.726826 0.133285
C55   C     C_3   0.312653 0.772782 0.307620 -0.258102
C56   C     C_3   0.363051 0.746522 0.244756 -0.398997
H56   H     H_    0.487624 0.729538 0.243469 0.188532
H57   H     H_    0.363575 0.803227 0.217602 0.145665
H58   H     H_    0.274823 0.686803 0.226200 0.164342
H59   H     H_    0.383570 0.840015 0.324060 0.118622
H60   H     H_    0.341534 0.720756 0.334636 0.051669

loop_
_geom_bond_atom_site_label_1
_geom_bond_atom_site_label_2
_ccdc_geom_bond_type
C26   H41   S    
C53   C54   S    
C16   H39   S    
C30   N1    S    
C6    H27   S    
Ba2   P4    S    
C39   C40   A    
O27   P3    S    
C17   C18   A    
O28   P3    D    
C31   H38   S    
C27   P8    S    
C43   P7    S    
C42   H48   S    
C5    C6    S    
C52   H9    S    
C51   C52   S    
C8    H32   S    
C35   C36   A    
C6    H26   S    
O2    P2    S    
C26   C27   S    
C33   C35   A    
C22   C24   A    
C16   C17   A    
C3    C4    S    
O10   P5    D    
C52   H7    S    
C29   H40   S    
C28   P4    S    
C34   C45   S    
C9    H43   S    
Ba1   Ba2   S    
C56   H58   S    
C3    H18   S    
C34   O7    S    
O17   P8    S    
Ba1   P2    S    
C7    H29   S    
C2    O25   S    
O4    P4    D    
C51   H5    S    
C1    H12   S    
C14   C15   A    
C2    H1    S    
C11   O18   D    
C21   C22   A    
C7    C8    S    
C17   H37   S    
O23   P6    D    
C45   H4    S    
C48   H47   S    
C55   H60   S    
O7    P4    S    
C27   C37   S    
C51   O24   S    
Ba1   O1    S    
C40   H46   S    
C35   H42   S    
Ba2   O5    S    
C48   C49   A    
C44   C46   A    
C20   C21   A    
Ba2   O6    S    
C38   C43   A    
O22   P6    S    
C44   H45   S    
O3    P3    S    
C8    H31   S    
C13   C14   A    
C25   O21   D    
O11   P5    S    
O25   P6    S    
C4    H19   S    
O5    P4    S    
O26   P2    D    
Ba2   O8    S    
O16   P8    D    
C4    H21   S    
C44   C49   A    
C15   C19   A    
C46   P3    S    
Ba1   O8    S    
C10   C15   A    
C41   C42   A    
C12   H33   S    
O24   P1    S    
C13   N1    Am   
C7    H30   S    
C51   H6    S    
C29   C30   S    
C26   C30   D    
O13   P2    S    
C56   H56   S    
C47   C50   A    
C47   P2    S    
C12   C55   S    
C18   C25   A    
C31   C32   A    
C39   P5    S    
Ba1   O5    S    
C10   C11   A    
C33   P1    S    
Ba2   O14   S    
C38   C39   A    
C5    H25   S    
C50   H49   S    
C47   C48   A    
C54   H14   S    
C55   H59   S    
C34   H54   S    
O9    P5    S    
C21   H35   S    
O12   P1    S    
C40   C41   A    
C36   N2    S    
C1    C2    S    
C24   N2    Am   
Ba1   O22   S    
C53   H10   S    
C24   O20   D    
C42   C43   A    
C23   H51   S    
C38   H50   S    
Ba2   O9    S    
C14   C20   A    
C3    O15   S    
C6    H28   S    
C9    C32   A    
C5    O11   S    
Ba1   O27   S    
C25   N2    Am   
C53   H11   S    
O14   P7    D    
C4    H20   S    
C53   O2    S    
Ba2   O12   S    
C31   C36   A    
Ba1   O13   S    
C9    C33   A    
C1    H16   S    
Ba1   O12   S    
C11   N1    Am   
C45   H2    S    
C32   P6    S    
C41   C49   S    
C37   H44   S    
C28   C29   D    
C52   H8    S    
O6    P8    S    
O1    P1    D    
C28   C37   D    
Ba2   O4    S    
C56   H57   S    
C12   C23   S    
C3    H17   S    
C23   H23   S    
Ba1   P1    S    
Ba1   O26   S    
C45   H3    S    
Ba2   O13   S    
C46   C50   A    
C13   O19   D    
C18   C19   A    
C8    H34   S    
O8    P7    S    
C54   H13   S    
C19   C22   A    
C10   C16   A    
C34   H53   S    
C20   H36   S    
C55   C56   S    
C54   H55   S    
C1    H22   S    
C2    H15   S    
C7    O17   S    
C12   O3    S    
C23   H52   S    
O15   P7    S    
C5    H24   S    
