data_mof_unit_pretest_527.cif
_audit_creation_date              2012-10-26T21:13:42-0400
_audit_creation_method            fapswitch 2.2
_symmetry_space_group_name_H-M    P1
_symmetry_Int_Tables_number       1
_space_group_crystal_system       triclinic
_cell_length_a                    9.069903
_cell_length_b                    10.83905
_cell_length_c                    9.561389
_cell_angle_alpha                 90.648721
_cell_angle_beta                  89.725423
_cell_angle_gamma                 90.484117
_cell_volume                      939.867685875

loop_
_atom_site_label
_atom_site_type_symbol
_atom_type_description
_atom_site_fract_x
_atom_site_fract_y
_atom_site_fract_z
_atom_type_partial_charge
C1    C     C_R   0.496106 0.262482 0.499261 0.548453
C2    C     C_R   0.622911 0.534686 0.926688 0.106734
C3    C     C_3   0.703887 0.654367 0.921656 -0.284958
C4    C     C_R   0.220727 0.499860 0.500164 0.556898
C5    C     C_3   0.701970 0.656153 0.080751 -0.269109
C6    C     C_R   0.497393 0.737846 0.500428 0.542028
C7    C     C_R   0.779263 0.500029 0.499821 0.549370
C8    C     C_1   0.065564 0.499892 0.500188 -0.075447
C9    C     C_1   0.934419 0.499947 0.499706 -0.077568
C10   C     C_R   0.465101 0.065800 0.622778 0.034963
C11   C     C_R   0.479474 0.129612 0.497661 0.007562
C12   C     C_R   0.474080 0.934306 0.371904 -0.162610
C13   C     C_R   0.472834 0.062999 0.370891 -0.166612
C14   C     C_3   0.134347 0.407243 0.897832 -0.001662
C15   C     C_3   0.063094 0.289721 0.955542 -0.278261
C16   C     C_3   0.903071 0.311256 0.998501 -0.474199
C17   C     C_R   0.482234 0.871188 0.499650 0.007051
C18   C     C_R   0.466615 0.938769 0.624038 0.020360
C19   C     C_3   0.555093 0.937769 0.755386 -0.283942
C20   C     C_3   0.552150 0.077503 0.754166 -0.259112
C21   C     C_R   0.622334 0.535692 0.073336 0.140000
C22   C     C_R   0.388503 0.446190 0.075127 -0.012403
C23   C     C_R   0.386409 0.446713 0.925058 0.366785
Cu1   Cu    Cu3+1 0.499990 0.499980 0.640670 0.986417
Cu2   Cu    Cu3+1 0.500010 0.500020 0.359330 0.927671
H1    H     H_    0.474774 0.109599 0.271269 0.133657
H2    H     H_    0.300799 0.401803 0.132953 0.120412
H3    H     H_    0.816285 0.644337 0.876265 0.125545
H4    H     H_    0.069677 0.436588 0.805834 0.166931
H5    H     H_    0.126267 0.484515 0.975547 0.094890
H6    H     H_    0.066550 0.215788 0.874064 0.175459
H7    H     H_    0.125624 0.257725 0.047669 0.152129
H8    H     H_    0.896849 0.384398 0.080616 0.159649
H9    H     H_    0.855031 0.224792 0.040942 0.147814
H10   H     H_    0.837353 0.338897 0.906441 0.155407
H11   H     H_    0.636222 0.727226 0.875586 0.143541
H12   H     H_    0.813473 0.647230 0.127121 0.128895
H13   H     H_    0.633416 0.731226 0.126144 0.143706
H14   H     H_    0.476207 0.885163 0.272698 0.129668
H15   H     H_    0.491543 0.898671 0.844396 0.130689
H16   H     H_    0.667624 0.900270 0.738558 0.131542
H17   H     H_    0.486459 0.118127 0.841435 0.154532
H18   H     H_    0.662630 0.120377 0.737544 0.136972
N1    N     N_R   0.500920 0.500930 0.147930 -0.259136
N2    N     N_R   0.500930 0.500890 0.852020 -0.220917
O1    O     O_R   0.500000 0.319640 0.618810 -0.468724
O2    O     O_R   0.500020 0.319680 0.381230 -0.513405
O3    O     O_R   0.288380 0.499980 0.618770 -0.451723
O4    O     O_R   0.288400 0.500020 0.381190 -0.510728
O5    O     O_R   0.499980 0.680320 0.618770 -0.505603
O6    O     O_R   0.500000 0.680360 0.381190 -0.508977
O7    O     O_R   0.711600 0.499980 0.618810 -0.507530
O8    O     O_R   0.711620 0.500020 0.381230 -0.493561
O9    O     O_3   0.279575 0.381275 0.851043 -0.539542

loop_
_geom_bond_atom_site_label_1
_geom_bond_atom_site_label_2
_ccdc_geom_bond_type
C12   C17   A    
Cu1   O7    S    
C20   H17   S    
Cu2   O6    S    
C15   H6    S    
C13   H1    S    
C23   N2    A    
C5    H12   S    
C16   H8    S    
C21   N1    A    
Cu2   O2    S    
C19   C20   S    
C1    C11   S    
C4    O4    A    
C4    C8    S    
Cu1   O1    S    
C2    C21   A    
C17   C18   A    
C15   H7    S    
C2    N2    A    
C5    H13   S    
C6    O5    A    
C12   C13   A    
C11   C13   A    
C3    H11   S    
C14   H5    S    
C19   H15   S    
Cu1   N2    S    
Cu2   N1    S    
C3    H3    S    
C14   O9    S    
Cu2   O8    S    
C7    O7    A    
C2    C3    S    
C22   H2    S    
C16   H10   S    
Cu1   O5    S    
C10   C18   A    
Cu2   O4    S    
C1    O1    A    
C10   C11   A    
C7    O8    A    
C14   H4    S    
C15   C16   S    
Cu1   O3    S    
C20   H18   S    
C5    C21   S    
Cu1   Cu2   S    
C23   O9    S    
C18   C19   S    
C4    O3    A    
C6    O6    A    
C7    C9    S    
C6    C17   S    
C14   C15   S    
C1    O2    A    
C16   H9    S    
C22   C23   A    
C12   H14   S    
C22   N1    A    
C19   H16   S    
C10   C20   S    
C8    C9    T    
C3    C5    S    
