data_mof_unit_pretest_1870.cif
_audit_creation_date              2013-03-05T16:16:24-0500
_audit_creation_method            fapswitch 2.2
_symmetry_space_group_name_H-M    P1
_symmetry_Int_Tables_number       1
_space_group_crystal_system       triclinic
_cell_length_a                    44.462367
_cell_length_b                    39.023303
_cell_length_c                    21.392524
_cell_angle_alpha                 89.998507
_cell_angle_beta                  61.241901
_cell_angle_gamma                 89.999782
_cell_volume                      32539.3751

loop_
_atom_site_label
_atom_site_type_symbol
_atom_site_description
_atom_site_fract_x
_atom_site_fract_y
_atom_site_fract_z
_atom_type_partial_charge
O1    O     O_R   0.049900 0.528880 0.450120 -0.578056
O2    O     O_R   0.950100 0.528880 0.549880 -0.578086
O3    O     O_R   0.549900 0.028880 0.450120 -0.578073
O4    O     O_R   0.450100 0.028880 0.549880 -0.578078
O5    O     O_R   0.049890 0.471100 0.450130 -0.581328
O6    O     O_R   0.950110 0.471100 0.549870 -0.581376
O7    O     O_R   0.549890 0.971100 0.450130 -0.581350
O8    O     O_R   0.450110 0.971100 0.549870 -0.581360
C1    C     C_R   0.066198 0.499982 0.434049 0.799668
C2    C     C_R   0.933801 0.499982 0.565951 0.799694
C3    C     C_R   0.566198 0.999982 0.434049 0.799681
C4    C     C_R   0.433801 0.999981 0.565951 0.799683
O9    O     O_R   0.999990 0.528880 0.591580 -0.585034
O10   O     O_R   0.000010 0.528880 0.408420 -0.585048
O11   O     O_R   0.499990 0.028880 0.591580 -0.585024
O12   O     O_R   0.500010 0.028880 0.408420 -0.585030
O13   O     O_R   0.999970 0.471100 0.591590 -0.578209
O14   O     O_R   0.000030 0.471100 0.408410 -0.578203
O15   O     O_R   0.499970 0.971100 0.591590 -0.578217
O16   O     O_R   0.500030 0.971100 0.408410 -0.578212
C5    C     C_R   0.999974 0.500009 0.620540 0.791407
C6    C     C_R   0.000024 0.500010 0.379461 0.791400
C7    C     C_R   0.499973 0.000009 0.620541 0.791408
C8    C     C_R   0.500026 0.000010 0.379459 0.791408
Cu1   Cu    Cu3+1 0.000000 0.534200 0.500000 0.999126
Cu2   Cu    Cu3+1 0.500000 0.034200 0.500000 0.999132
Cu3   Cu    Cu3+1 1.000000 0.465780 0.500000 0.999395
Cu4   Cu    Cu3+1 0.500000 0.965780 0.500000 0.999402
C9    C     C_3   0.028335 0.484109 0.700855 -0.180037
C10   C     C_3   0.971709 0.484029 0.299101 -0.180055
C11   C     C_3   0.528368 0.984169 0.700820 -0.180058
C12   C     C_3   0.471647 0.984142 0.299166 -0.180063
C13   C     C_3   0.000341 0.467577 0.770306 -0.125884
C14   C     C_3   0.999753 0.467579 0.229604 -0.125952
C15   C     C_3   0.500411 0.967577 0.770235 -0.125794
C16   C     C_3   0.499622 0.967579 0.229737 -0.125823
H1    H     H_    0.000737 0.440932 0.788009 0.180808
H2    H     H_    0.999435 0.440933 0.211830 0.180921
H3    H     H_    0.500866 0.940933 0.787877 0.180817
H4    H     H_    0.499194 0.940934 0.212071 0.180855
H5    H     H_    0.051533 0.471034 0.659284 0.158419
H6    H     H_    0.948550 0.470885 0.340633 0.158449
H7    H     H_    0.551594 0.971145 0.659219 0.158387
H8    H     H_    0.448435 0.971094 0.340754 0.158400
C17   C     C_3   0.000045 0.500053 0.810932 0.005183
C18   C     C_3   0.999954 0.500056 0.189069 0.005211
C19   C     C_3   0.500044 0.000052 0.810932 0.005179
C20   C     C_3   0.499955 0.000054 0.189068 0.005187
C21   C     C_3   0.028059 0.516583 0.742573 -0.101679
C22   C     C_3   0.971891 0.516503 0.257474 -0.101756
C23   C     C_3   0.528022 0.016643 0.742608 -0.101636
C24   C     C_3   0.471960 0.016616 0.257407 -0.101649
C25   C     C_3   0.999713 0.532595 0.729681 -0.132406
C26   C     C_3   0.000189 0.532599 0.270413 -0.132224
C27   C     C_3   0.499641 0.032594 0.729753 -0.132539
C28   C     C_3   0.500325 0.032596 0.270277 -0.132474
C29   C     C_3   0.971702 0.516061 0.799011 -0.144650
C30   C     C_3   0.028249 0.516147 0.201037 -0.144523
C31   C     C_3   0.471666 0.015998 0.799047 -0.144769
C32   C     C_3   0.528317 0.016030 0.200968 -0.144725
C33   C     C_3   0.971986 0.483573 0.757299 -0.134152
C34   C     C_3   0.028060 0.483658 0.242658 -0.134289
C35   C     C_3   0.472020 0.983512 0.757264 -0.134057
C36   C     C_3   0.527996 0.983543 0.242722 -0.134103
C37   C     C_3   0.999988 0.500100 0.688997 -0.017631
C38   C     C_3   0.000009 0.500103 0.311006 -0.017635
C39   C     C_3   0.499986 0.000099 0.688998 -0.017613
C40   C     C_3   0.500013 0.000101 0.311003 -0.017618
H9    H     H_    0.051102 0.530070 0.737541 0.197826
H10   H     H_    0.948810 0.529924 0.262538 0.197670
H11   H     H_    0.551038 0.030178 0.737601 0.197937
H12   H     H_    0.448931 0.030128 0.262425 0.197889
H13   H     H_    0.999462 0.559302 0.712058 0.173021
H14   H     H_    0.000360 0.559306 0.288114 0.173041
H15   H     H_    0.499332 0.059300 0.712188 0.172995
H16   H     H_    0.500607 0.059303 0.287867 0.173002
H17   H     H_    0.948496 0.529190 0.840425 0.162354
H18   H     H_    0.051416 0.529345 0.159660 0.162304
H19   H     H_    0.448432 0.029077 0.840489 0.162382
H20   H     H_    0.551538 0.029133 0.159538 0.162365
H21   H     H_    0.949019 0.470054 0.761992 0.154609
H22   H     H_    0.051066 0.470208 0.237928 0.154508
H23   H     H_    0.449083 0.969943 0.761929 0.154670
H24   H     H_    0.550947 0.969998 0.238045 0.154637
C41   C     C_R   0.378406 0.479544 0.081172 -0.165618
C42   C     C_R   0.621591 0.479532 0.918822 -0.165626
C43   C     C_R   0.878407 0.979548 0.081158 -0.165644
C44   C     C_R   0.121592 0.979545 0.918841 -0.165647
H25   H     H_    0.392317 0.462633 0.036094 0.171320
H26   H     H_    0.607678 0.462618 0.963893 0.171319
H27   H     H_    0.892319 0.962644 0.036070 0.171321
H28   H     H_    0.107679 0.962639 0.963928 0.171320
C45   C     C_R   0.342649 0.478343 0.117379 -0.138426
C46   C     C_R   0.657349 0.478329 0.882616 -0.138413
C47   C     C_R   0.842649 0.978345 0.117363 -0.138419
C48   C     C_R   0.157350 0.978342 0.882636 -0.138418
H29   H     H_    0.329439 0.460957 0.099296 0.155288
H30   H     H_    0.670557 0.460937 0.900691 0.155319
H31   H     H_    0.829441 0.960965 0.099270 0.155312
H32   H     H_    0.170558 0.960959 0.900729 0.155314
C49   C     C_R   0.324058 0.499785 0.175942 0.025326
C50   C     C_R   0.675941 0.499777 0.824062 0.025250
C51   C     C_R   0.824058 0.999781 0.175937 0.025276
C52   C     C_R   0.175941 0.999779 0.824063 0.025269
C53   C     C_R   0.341501 0.522170 0.198592 -0.178243
C54   C     C_R   0.658502 0.522170 0.801418 -0.178202
C55   C     C_R   0.841498 0.022159 0.198603 -0.178230
C56   C     C_R   0.158502 0.022159 0.801398 -0.178224
H33   H     H_    0.326948 0.538917 0.243638 0.192080
H34   H     H_    0.673057 0.538922 0.756381 0.192123
H35   H     H_    0.826944 0.038901 0.243658 0.192103
H36   H     H_    0.173057 0.038903 0.756344 0.192108
C57   C     C_R   0.377480 0.523424 0.163275 0.332161
C58   C     C_R   0.622523 0.523426 0.836732 0.332127
C59   C     C_R   0.877477 0.023415 0.163290 0.332165
C60   C     C_R   0.122523 0.023416 0.836711 0.332158
C61   C     C_R   0.396160 0.501677 0.103821 -0.105512
C62   C     C_R   0.603840 0.501674 0.896179 -0.105514
C63   C     C_R   0.896160 0.001676 0.103822 -0.105487
C64   C     C_R   0.103840 0.001675 0.896178 -0.105493
C65   C     C_R   0.268006 0.529120 0.216960 -0.141442
C66   C     C_R   0.731991 0.529090 0.783195 -0.141412
C67   C     C_R   0.768008 0.029102 0.216865 -0.141425
C68   C     C_R   0.231992 0.029098 0.783150 -0.141422
H37   H     H_    0.281450 0.552402 0.190841 0.160350
H38   H     H_    0.718546 0.552353 0.809424 0.160380
H39   H     H_    0.781453 0.052374 0.190680 0.160366
H40   H     H_    0.218547 0.052367 0.809346 0.160370
C69   C     C_R   0.232216 0.529010 0.253834 -0.078704
C70   C     C_R   0.767781 0.528982 0.746322 -0.078740
C71   C     C_R   0.732218 0.028994 0.253738 -0.078735
C72   C     C_R   0.267782 0.028990 0.746277 -0.078738
H41   H     H_    0.218551 0.552168 0.254916 0.157936
H42   H     H_    0.781446 0.552121 0.745350 0.157930
H43   H     H_    0.718554 0.052141 0.254755 0.157929
H44   H     H_    0.281447 0.052135 0.745271 0.157931
C73   C     C_R   0.214227 0.499347 0.289549 0.123928
C74   C     C_R   0.785770 0.499345 0.710465 0.123941
C75   C     C_R   0.714229 0.999347 0.289538 0.123938
C76   C     C_R   0.285771 0.999345 0.710464 0.123938
C77   C     C_R   0.232704 0.469348 0.284898 -0.147048
C78   C     C_R   0.767293 0.469366 0.714971 -0.147066
C79   C     C_R   0.732705 0.969359 0.284974 -0.147061
C80   C     C_R   0.267294 0.969360 0.715014 -0.147065
H45   H     H_    0.219435 0.446126 0.311731 0.149221
H46   H     H_    0.780563 0.446165 0.688026 0.149223
H47   H     H_    0.719436 0.946149 0.311874 0.149224
H48   H     H_    0.280563 0.946152 0.688103 0.149222
C81   C     C_R   0.268515 0.469260 0.246573 -0.143499
C82   C     C_R   0.731482 0.469274 0.753293 -0.143471
C83   C     C_R   0.768516 0.969269 0.246650 -0.143479
C84   C     C_R   0.231483 0.969269 0.753338 -0.143478
H49   H     H_    0.282368 0.446035 0.244215 0.157018
H50   H     H_    0.717628 0.446067 0.755540 0.157061
H51   H     H_    0.782369 0.946054 0.244357 0.157050
H52   H     H_    0.217629 0.946056 0.755620 0.157054
C85   C     C_R   0.286331 0.499279 0.213272 0.096112
C86   C     C_R   0.713667 0.499270 0.786738 0.096041
C87   C     C_R   0.786332 0.999274 0.213263 0.096061
C88   C     C_R   0.213668 0.999272 0.786738 0.096053
C89   C     C_R   0.158146 0.472807 0.318902 -0.198917
C90   C     C_R   0.841852 0.472772 0.680991 -0.198954
C91   C     C_R   0.658146 0.972788 0.318963 -0.198944
C92   C     C_R   0.341853 0.972782 0.681024 -0.198947
H53   H     H_    0.171784 0.452111 0.282436 0.159295
H54   H     H_    0.828215 0.452045 0.717367 0.159304
H55   H     H_    0.671784 0.952074 0.282551 0.159298
H56   H     H_    0.328216 0.952064 0.717427 0.159298
C93   C     C_R   0.122401 0.472806 0.353069 -0.161284
C94   C     C_R   0.877598 0.472771 0.646822 -0.161285
C95   C     C_R   0.622401 0.972787 0.353132 -0.161276
C96   C     C_R   0.377598 0.972781 0.646855 -0.161277
H57   H     H_    0.109189 0.451920 0.343190 0.165347
H58   H     H_    0.890809 0.451855 0.656611 0.165416
H59   H     H_    0.609190 0.951883 0.343307 0.165385
H60   H     H_    0.390809 0.951873 0.656671 0.165391
C97   C     C_R   0.103931 0.499947 0.397948 -0.094534
C98   C     C_R   0.896067 0.499947 0.602055 -0.094605
C99   C     C_R   0.603932 0.999948 0.397946 -0.094579
C100  C     C_R   0.396068 0.999947 0.602054 -0.094584
C101  C     C_R   0.121643 0.526698 0.409725 -0.224487
C102  C     C_R   0.878352 0.526736 0.590396 -0.224471
C103  C     C_R   0.621646 0.026721 0.409651 -0.224488
C104  C     C_R   0.378354 0.026725 0.590361 -0.224484
H61   H     H_    0.107344 0.547160 0.446236 0.191356
H62   H     H_    0.892649 0.547228 0.553974 0.191416
H63   H     H_    0.607349 0.047199 0.446110 0.191396
H64   H     H_    0.392651 0.047208 0.553913 0.191402
C105  C     C_R   0.157587 0.526356 0.378043 0.346118
C106  C     C_R   0.842408 0.526399 0.622085 0.346112
C107  C     C_R   0.657590 0.026382 0.377964 0.346116
C108  C     C_R   0.342410 0.026386 0.622049 0.346116
C109  C     C_R   0.176207 0.499477 0.330304 -0.019576
C110  C     C_R   0.823790 0.499481 0.669708 -0.019577
C111  C     C_R   0.676209 0.999480 0.330294 -0.019574
C112  C     C_R   0.323791 0.999479 0.669707 -0.019574
O17   O     O_R   0.971100 0.450110 0.028870 -0.556784
O18   O     O_R   0.028900 0.450110 0.971130 -0.556773
O19   O     O_R   0.471100 0.950110 0.028870 -0.556820
O20   O     O_R   0.528900 0.950110 0.971130 -0.556817
C113  C     C_R   1.000000 0.433820 0.999998 0.891522
C114  C     C_R   0.500000 0.933821 0.999999 0.891629
O21   O     O_R   0.971110 0.500030 0.937300 -0.580818
O22   O     O_R   0.028890 0.500030 0.062700 -0.580819
O23   O     O_R   0.471110 0.000030 0.937300 -0.580834
O24   O     O_R   0.528890 0.000030 0.062700 -0.580836
O25   O     O_R   0.028880 0.500040 0.879560 -0.572510
O26   O     O_R   0.971120 0.500040 0.120440 -0.572522
O27   O     O_R   0.528880 0.000040 0.879560 -0.572504
O28   O     O_R   0.471120 0.000040 0.120440 -0.572506
C115  C     C_R   0.000004 0.499984 0.879446 0.835154
C116  C     C_R   0.999996 0.499985 0.120553 0.835137
C117  C     C_R   0.500004 0.999984 0.879446 0.835198
C118  C     C_R   0.499996 0.999984 0.120553 0.835194
Cu5   Cu    Cu3+1 0.965780 0.500020 0.034200 1.077425
Cu6   Cu    Cu3+1 0.034220 0.500020 0.965800 1.077455
Cu7   Cu    Cu3+1 0.465780 0.000020 0.034200 1.077403
Cu8   Cu    Cu3+1 0.534220 0.000020 0.965800 1.077410
O29   O     O_R   0.971110 0.549940 0.028880 -0.556927
O30   O     O_R   0.028890 0.549940 0.971120 -0.556929
O31   O     O_R   0.471110 0.049940 0.028880 -0.556922
O32   O     O_R   0.528890 0.049940 0.971120 -0.556923
C119  C     C_R   0.000000 0.566177 0.000003 0.915715
C120  C     C_R   0.500000 0.066177 0.000001 0.915716
O33   O     O_R   0.499970 0.450010 0.052910 -0.563848
O34   O     O_R   0.500030 0.450010 0.947090 -0.563844
O35   O     O_R   0.999970 0.950010 0.052910 -0.563848
O36   O     O_R   0.000030 0.950010 0.947090 -0.563842
C121  C     C_R   0.500000 0.433832 0.000001 0.885068
C122  C     C_R   1.000000 0.933832 0.000001 0.885056
O37   O     O_R   0.450080 0.499920 0.102890 -0.534908
O38   O     O_R   0.549920 0.499920 0.897110 -0.534913
O39   O     O_R   0.950080 0.999920 0.102890 -0.534899
O40   O     O_R   0.049920 0.999920 0.897110 -0.534900
O41   O     O_R   0.450090 0.499990 0.996890 -0.582058
O42   O     O_R   0.549910 0.499990 0.003110 -0.582057
O43   O     O_R   0.950090 0.999990 0.996890 -0.582059
O44   O     O_R   0.049910 0.999990 0.003110 -0.582061
C123  C     C_R   0.433887 0.500697 0.066109 0.877203
C124  C     C_R   0.566113 0.500696 0.933891 0.877212
C125  C     C_R   0.933887 0.000697 0.066110 0.877225
C126  C     C_R   0.066113 0.000696 0.933890 0.877221
Cu9   Cu    Cu3+1 0.499990 0.499910 0.062770 1.152888
Cu10  Cu    Cu3+1 0.500010 0.499910 0.937230 1.152876
Cu11  Cu    Cu3+1 0.999990 0.999910 0.062770 1.152894
Cu12  Cu    Cu3+1 0.000010 0.999910 0.937230 1.152894
O45   O     O_R   0.500000 0.549830 0.053110 -0.536576
O46   O     O_R   0.500000 0.549830 0.946890 -0.536585
O47   O     O_R   0.000000 0.049830 0.053110 -0.536580
O48   O     O_R   1.000000 0.049830 0.946890 -0.536587
C127  C     C_R   0.500000 0.566113 0.999999 0.935613
C128  C     C_R   1.000000 0.066112 0.999999 0.935635
C129  C     C_R   0.519756 0.622528 0.024859 0.305175
C130  C     C_R   0.480242 0.622527 0.975136 0.305171
C131  C     C_R   0.019773 0.122525 0.024815 0.305140
C132  C     C_R   0.980223 0.122522 0.975178 0.305146
C133  C     C_R   0.518999 0.658435 0.025583 -0.118318
C134  C     C_R   0.480997 0.658434 0.974410 -0.118323
C135  C     C_R   0.019017 0.158432 0.025533 -0.118324
C136  C     C_R   0.980975 0.158428 0.974456 -0.118330
H65   H     H_    0.534072 0.672584 0.044368 0.198813
H66   H     H_    0.465924 0.672581 0.955625 0.198810
H67   H     H_    0.034106 0.172580 0.044278 0.198892
H68   H     H_    0.965886 0.172574 0.955707 0.198886
C137  C     C_R   0.499998 0.676340 0.999996 0.031676
C138  C     C_R   0.999996 0.176336 0.999993 0.031586
C139  C     C_R   0.499999 0.604083 0.999998 -0.233899
C140  C     C_R   0.999998 0.104080 0.999998 -0.233934
C141  C     C_R   0.520336 0.732256 0.936428 0.253679
C142  C     C_R   0.479658 0.732255 0.063560 0.253678
C143  C     C_R   0.020140 0.232254 0.936316 0.253598
C144  C     C_R   0.979848 0.232254 0.063661 0.253602
C145  C     C_R   0.020071 0.268064 0.936693 -0.119054
C146  C     C_R   0.979916 0.268064 0.063280 -0.119066
C147  C     C_R   0.520264 0.768067 0.936805 -0.119102
C148  C     C_R   0.479730 0.768066 0.063183 -0.119105
H69   H     H_    0.035687 0.281936 0.887689 0.189518
H70   H     H_    0.964301 0.281936 0.112283 0.189513
H71   H     H_    0.536025 0.781940 0.887884 0.189442
H72   H     H_    0.463969 0.781937 0.112104 0.189440
C149  C     C_R   0.999994 0.286050 0.999985 0.082733
C150  C     C_R   0.499997 0.786052 0.999994 0.082824
C151  C     C_R   0.499997 0.714079 0.999995 -0.039284
C152  C     C_R   0.999994 0.214076 0.999990 -0.039211
C153  C     C_R   0.019056 0.341840 0.026167 0.248444
C154  C     C_R   0.980941 0.341847 0.973802 0.248441
C155  C     C_R   0.519006 0.841842 0.026295 0.248556
C156  C     C_R   0.480991 0.841845 0.973693 0.248556
C157  C     C_R   0.018990 0.377875 0.026450 0.185385
C158  C     C_R   0.981010 0.377882 0.973524 0.185378
C159  C     C_R   0.518945 0.877877 0.026563 0.185302
C160  C     C_R   0.481054 0.877881 0.973428 0.185298
C161  C     C_R   1.000000 0.396016 0.999991 -0.255447
C162  C     C_R   0.499999 0.896016 0.999997 -0.255357
C163  C     C_R   0.999996 0.323843 0.999985 -0.141241
C164  C     C_R   0.499998 0.823844 0.999994 -0.141334
C165  C     C_R   0.523405 0.377873 0.938314 0.295666
C166  C     C_R   0.476595 0.377872 0.061693 0.295663
C167  C     C_R   0.023402 0.877872 0.938315 0.295665
C168  C     C_R   0.976595 0.877873 0.061697 0.295666
C169  C     C_R   0.522640 0.342012 0.938748 -0.204894
C170  C     C_R   0.477360 0.342011 0.061261 -0.204890
C171  C     C_R   0.022636 0.842010 0.938751 -0.204893
C172  C     C_R   0.977360 0.842011 0.061267 -0.204890
H73   H     H_    0.540778 0.328074 0.891859 0.185279
H74   H     H_    0.459222 0.328073 0.108150 0.185281
H75   H     H_    0.040773 0.828072 0.891862 0.185281
H76   H     H_    0.959223 0.828074 0.108158 0.185282
C173  C     C_R   0.500000 0.323960 0.000005 -0.026805
C174  C     C_R   0.999998 0.823959 0.000010 -0.026807
C175  C     C_R   0.500000 0.396123 0.000002 -0.261747
C176  C     C_R   0.999999 0.896122 0.000004 -0.261747
C177  C     C_R   0.499068 0.267985 0.057545 -0.151997
C178  C     C_R   0.500930 0.267986 0.942466 -0.151999
C179  C     C_R   0.999070 0.767985 0.057549 -0.151995
C180  C     C_R   0.000923 0.767985 0.942479 -0.151997
H77   H     H_    0.498795 0.281462 0.102077 0.153863
H78   H     H_    0.501204 0.281465 0.897934 0.153864
H79   H     H_    0.998800 0.781462 0.102077 0.153863
H80   H     H_    0.001193 0.781463 0.897950 0.153865
C181  C     C_R   0.999162 0.732253 0.057475 -0.152926
C182  C     C_R   0.000832 0.732253 0.942556 -0.152925
C183  C     C_R   0.499160 0.232253 0.057470 -0.152926
C184  C     C_R   0.500839 0.232254 0.942542 -0.152926
H81   H     H_    0.999069 0.718868 0.101910 0.149170
H82   H     H_    0.000925 0.718869 0.898121 0.149175
H83   H     H_    0.499063 0.218868 0.101909 0.149175
H84   H     H_    0.500936 0.218871 0.898103 0.149177
C185  C     C_R   0.999997 0.714036 0.000016 0.137560
C186  C     C_R   0.500000 0.214037 0.000006 0.137562
C187  C     C_R   0.499999 0.286139 0.000006 0.132063
C188  C     C_R   0.999997 0.786138 0.000013 0.132060
C189  C     C_R   0.021233 0.658024 0.937610 -0.204978
C190  C     C_R   0.978766 0.658020 0.062416 -0.204972
C191  C     C_R   0.521240 0.158024 0.937606 -0.204983
C192  C     C_R   0.478761 0.158022 0.062403 -0.204980
H85   H     H_    0.037722 0.671866 0.889128 0.184162
H86   H     H_    0.962276 0.671859 0.110900 0.184162
H87   H     H_    0.537733 0.171866 0.889127 0.184164
H88   H     H_    0.462267 0.171861 0.110883 0.184165
C193  C     C_R   0.021054 0.622163 0.936425 0.300868
C194  C     C_R   0.978946 0.622159 0.063594 0.300838
C195  C     C_R   0.521060 0.122163 0.936423 0.300892
C196  C     C_R   0.478941 0.122161 0.063584 0.300883
C197  C     C_R   0.000000 0.603905 0.000007 -0.269356
C198  C     C_R   0.500000 0.103906 0.000002 -0.269357
C199  C     C_R   0.999999 0.676137 0.000014 -0.025975
C200  C     C_R   0.500000 0.176138 0.000005 -0.025986
N1    N     N_R   0.394290 0.547501 0.187179 0.138136
O49   O     O_R   0.380399 0.555656 0.254350 -0.293960
O50   O     O_R   0.420700 0.564885 0.141370 -0.322331
N2    N     N_R   0.605715 0.547510 0.812834 0.138140
O51   O     O_R   0.619611 0.555677 0.745667 -0.293963
O52   O     O_R   0.579302 0.564887 0.858646 -0.322333
N3    N     N_R   0.894286 0.047484 0.187212 0.138132
O53   O     O_R   0.880394 0.055628 0.254390 -0.293986
O54   O     O_R   0.920694 0.064874 0.141417 -0.322305
N4    N     N_R   0.105716 0.047488 0.812789 0.138131
O55   O     O_R   0.119609 0.055635 0.745612 -0.293985
O56   O     O_R   0.079306 0.064876 0.858585 -0.322303
N5    N     N_R   0.174436 0.552424 0.397510 0.112399
O57   O     O_R   0.199974 0.544503 0.408405 -0.315344
O58   O     O_R   0.161364 0.583049 0.414140 -0.324813
N6    N     N_R   0.825557 0.552517 0.602743 0.112409
O59   O     O_R   0.800016 0.544647 0.591820 -0.315342
O60   O     O_R   0.838628 0.583148 0.586254 -0.324829
N7    N     N_R   0.674441 0.052478 0.397357 0.112407
O61   O     O_R   0.699980 0.044587 0.408268 -0.315350
O62   O     O_R   0.661370 0.083107 0.413903 -0.324829
N8    N     N_R   0.325558 0.052489 0.602670 0.112405
O63   O     O_R   0.300020 0.044604 0.591754 -0.315348
O64   O     O_R   0.338629 0.083119 0.586143 -0.324829
N9    N     N_R   0.541682 0.605448 0.047094 0.147813
O65   O     O_R   0.562469 0.581431 0.007741 -0.323115
O66   O     O_R   0.545111 0.617666 0.099921 -0.292963
N10   N     N_R   0.458315 0.605445 0.952906 0.147809
O67   O     O_R   0.437528 0.581428 0.992263 -0.323138
O68   O     O_R   0.454886 0.617663 0.900078 -0.292969
N11   N     N_R   0.041714 0.105446 0.047010 0.147799
O69   O     O_R   0.062485 0.081418 0.007657 -0.323217
O70   O     O_R   0.045172 0.117672 0.099796 -0.292874
N12   N     N_R   0.958283 0.105439 0.952984 0.147794
O71   O     O_R   0.937511 0.081413 0.992344 -0.323230
O72   O     O_R   0.954829 0.117660 0.900189 -0.292876
Br1   Br    Br    0.549010 0.709155 0.848248 -0.374470
Br2   Br    Br    0.450984 0.709152 0.151741 -0.374483
Br3   Br    Br    0.048565 0.209159 0.847978 -0.374507
Br4   Br    Br    0.951423 0.209159 0.152002 -0.374520
Br5   Br    Br    0.045612 0.316956 0.060798 -0.365264
Br6   Br    Br    0.954384 0.316971 0.939163 -0.365280
Br7   Br    Br    0.545471 0.816955 0.061143 -0.365236
Br8   Br    Br    0.454526 0.816962 0.938843 -0.365250
Br9   Br    Br    0.043721 0.402140 0.066239 -0.434571
Br10  Br    Br    0.956291 0.402156 0.933719 -0.434550
Br11  Br    Br    0.543618 0.902148 0.066477 -0.434721
Br12  Br    Br    0.456385 0.902156 0.933510 -0.434722
N13   N     N_R   0.548984 0.395172 0.875938 0.141510
O73   O     O_R   0.566604 0.420282 0.882211 -0.375946
O74   O     O_R   0.558436 0.382524 0.812898 -0.317111
N14   N     N_R   0.451016 0.395171 0.124067 0.141512
O75   O     O_R   0.433396 0.420281 0.117793 -0.375931
O76   O     O_R   0.441564 0.382522 0.187108 -0.317099
N15   N     N_R   0.048981 0.895170 0.875936 0.141513
O77   O     O_R   0.066602 0.920280 0.882205 -0.375926
O78   O     O_R   0.058430 0.882521 0.812898 -0.317104
N16   N     N_R   0.951017 0.895172 0.124072 0.141513
O79   O     O_R   0.933397 0.920281 0.117799 -0.375927
O80   O     O_R   0.941568 0.882524 0.187112 -0.317102
N17   N     N_R   0.041371 0.604847 0.869729 0.136731
O81   O     O_R   0.070903 0.617385 0.823401 -0.321896
O82   O     O_R   0.028215 0.579909 0.850419 -0.398925
N18   N     N_R   0.958630 0.604838 0.130287 0.136726
O83   O     O_R   0.929098 0.617374 0.176617 -0.321908
O84   O     O_R   0.971784 0.579896 0.149591 -0.398857
N19   N     N_R   0.541382 0.104847 0.869731 0.136735
O85   O     O_R   0.570917 0.117383 0.823413 -0.321913
O86   O     O_R   0.528228 0.079910 0.850412 -0.398996
N20   N     N_R   0.458619 0.104842 0.130274 0.136733
O87   O     O_R   0.429084 0.117377 0.176593 -0.321912
O88   O     O_R   0.471772 0.079903 0.149592 -0.398977

loop_
_geom_bond_atom_site_label_1
_geom_bond_atom_site_label_2
_geom_bond_distance
_ccdc_geom_bond_type
C178  H78   1.083117 S    
C27   C31   1.545879 S    
C158  C161  1.412182 A    
C13   C17   1.533187 S    
C78   H46   1.082993 S    
C136  H68   1.083789 S    
C15   C19   1.533188 S    
C129  C139  1.422028 A    
C11   C39   1.532952 S    
C17   C29   1.533811 S    
C94   C98   1.399773 A    
C133  H65   1.083782 S    
O21   Cu5   1.969906 S    
N15   O78   1.301383 A    
C43   H27   1.083536 S    
N13   O74   1.301383 A    
C107  N7    1.438650 S    
C47   H31   1.083276 S    
C131  C140  1.422014 A    
O48   C128  1.301759 A    
C9    C13   1.547046 S    
C181  C185  1.404901 A    
C166  C170  1.399766 A    
C147  C150  1.399936 A    
C81   H49   1.083253 S    
C12   C24   1.546626 S    
C157  C161  1.412182 A    
C26   H14   1.110146 S    
C84   H52   1.083255 S    
N10   O68   1.301339 A    
C20   C32   1.533815 S    
C83   H51   1.083258 S    
O4    C4    1.294346 A    
C77   H45   1.082994 S    
C5    C37   1.464751 S    
O24   C118  1.285410 A    
C79   C83   1.396882 A    
C132  C140  1.422018 A    
C180  C182  1.394389 A    
C21   H9    1.110063 S    
Cu11  Cu12  2.685190 S    
C70   H42   1.082948 S    
C23   H11   1.110055 S    
C177  C183  1.394389 A    
C10   C38   1.532957 S    
C75   C111  1.483103 S    
C131  C135  1.401500 A    
Cu7   O31   1.959089 S    
C130  N10   1.437733 S    
C92   H56   1.083224 S    
C133  C137  1.395175 A    
C185  C199  1.478968 S    
C42   H26   1.083535 S    
C45   C49   1.398763 A    
C34   C38   1.533132 S    
O16   Cu4   1.969668 S    
C182  C185  1.404903 A    
O27   C117  1.285054 A    
O7    Cu4   1.955673 S    
C104  H64   1.083514 S    
O15   C7    1.286989 A    
Cu5   Cu6   2.667680 S    
C165  N13   1.438564 S    
C24   H12   1.110060 S    
C168  C176  1.417842 A    
N8    O64   1.301414 A    
N3    O53   1.301413 A    
C196  N20   1.438115 S    
C169  H73   1.083508 S    
O26   C116  1.285049 A    
N2    O51   1.301414 A    
C153  C163  1.407764 A    
C66   C86   1.401506 A    
O9    C5    1.285575 A    
C17   C115  1.464829 S    
C41   C61   1.404281 A    
C63   C125  1.471055 S    
C191  C200  1.400153 A    
C98   C102  1.401572 A    
C174  C188  1.475904 S    
C178  C184  1.394389 A    
O44   C126  1.298459 A    
C48   C52   1.398748 A    
C166  N14   1.438564 S    
O20   Cu8   1.958659 S    
O8    Cu4   1.955685 S    
N16   O80   1.301382 A    
C3    C99   1.471209 S    
C136  C138  1.395188 A    
C70   C74   1.405477 A    
C127  C139  1.481691 S    
C1    C97   1.471179 S    
C137  C151  1.472697 S    
C94   H58   1.083270 S    
C138  C152  1.472732 S    
O3    Cu2   1.956069 S    
O9    Cu1   1.969877 S    
C194  C197  1.417334 A    
C29   C33   1.546904 S    
C170  H74   1.083506 S    
C31   C35   1.546893 S    
C32   C36   1.546900 S    
C160  C162  1.412172 A    
C22   H10   1.110063 S    
C18   C116  1.464829 S    
O39   Cu11  1.956647 S    
C148  C150  1.399935 A    
C21   C25   1.545733 S    
C68   C88   1.401506 A    
O44   Cu11  1.956930 S    
O25   Cu6   1.970148 S    
C23   C27   1.545728 S    
C156  C164  1.407733 A    
C144  Br4   1.919042 S    
O3    C3    1.294343 A    
C19   C31   1.533817 S    
C33   C37   1.533140 S    
C20   C24   1.534068 S    
C69   C73   1.405470 A    
C61   C123  1.471049 S    
C13   C33   1.547261 S    
C135  H67   1.083787 S    
C141  C151  1.409532 A    
C15   C35   1.547273 S    
C102  C106  1.404058 A    
N17   O81   1.301363 A    
C16   C36   1.547268 S    
C89   H53   1.083230 S    
C100  C104  1.401562 A    
C144  C152  1.409566 A    
C153  Br5   1.930718 S    
N1    O49   1.301412 A    
C91   H55   1.083228 S    
C14   C34   1.547248 S    
C56   C60   1.403334 A    
C50   C86   1.470674 S    
C191  C195  1.399736 A    
N8    O63   1.301444 A    
C9    C21   1.546626 S    
C43   C63   1.404288 A    
O23   Cu7   1.969906 S    
C56   H36   1.083727 S    
C11   H7    1.110152 S    
C36   C40   1.533138 S    
C53   C57   1.403330 A    
N18   O83   1.301363 A    
C41   H25   1.083538 S    
O36   Cu12  1.958691 S    
C153  C157  1.406203 A    
N6    O59   1.301451 A    
C68   C72   1.395218 A    
C186  C200  1.478956 S    
C58   N2    1.438994 S    
O5    Cu3   1.955673 S    
C41   C45   1.394588 A    
C36   H24   1.110163 S    
O6    Cu3   1.955685 S    
C43   C47   1.394594 A    
C154  C163  1.407764 A    
O19   C114  1.293451 A    
N19   O86   1.300906 A    
C14   C18   1.533182 S    
C25   C37   1.534767 S    
C183  H83   1.082876 S    
O8    C4    1.293972 A    
C27   H15   1.110153 S    
C190  C194  1.399741 A    
C18   C30   1.533803 S    
O25   C115  1.285053 A    
O21   C115  1.285409 A    
C134  H66   1.083786 S    
C93   C97   1.399756 A    
C47   C51   1.398749 A    
C178  C187  1.403448 A    
O7    C3    1.293972 A    
N20   O88   1.300910 A    
C10   C14   1.547052 S    
O13   Cu3   1.969677 S    
C148  H72   1.083362 S    
C30   H18   1.110142 S    
Cu7   Cu8   2.667680 S    
C28   C40   1.534766 S    
C60   C64   1.418197 A    
C83   C87   1.401487 A    
C192  C200  1.400152 A    
O32   C120  1.292109 A    
C35   C39   1.533138 S    
C65   H37   1.083319 S    
C67   H39   1.083323 S    
C72   H44   1.082950 S    
C44   H28   1.083535 S    
C89   C109  1.405736 A    
C193  N17   1.438124 S    
N4    O56   1.300808 A    
O15   Cu4   1.969677 S    
C160  Br12  1.931543 S    
C46   C50   1.398746 A    
O40   C126  1.297476 A    
C9    C37   1.532952 S    
O20   C114  1.293450 A    
N3    O54   1.300809 A    
O26   Cu5   1.970148 S    
C59   C63   1.418197 A    
C57   C61   1.418186 A    
C92   C96   1.393687 A    
C108  N8    1.438645 S    
N1    O50   1.300810 A    
C45   H29   1.083276 S    
C142  Br2   1.918987 S    
C62   C124  1.471046 S    
C53   H33   1.083727 S    
C32   H20   1.110143 S    
O47   C128  1.301762 A    
C4    C100  1.471217 S    
O14   C6    1.286998 A    
C55   H35   1.083724 S    
Cu6   O30   1.959092 S    
C11   C23   1.546634 S    
N14   O75   1.301192 A    
C51   C55   1.400286 A    
C92   C112  1.405731 A    
C177  H77   1.083118 S    
C26   C38   1.534773 S    
O45   C127  1.301777 A    
C190  C199  1.400157 A    
O22   Cu6   1.969906 S    
O43   C125  1.298459 A    
O10   C6    1.285574 A    
C192  C196  1.399738 A    
C135  C138  1.395202 A    
C33   H21   1.110164 S    
N13   O73   1.301196 A    
C149  C163  1.474800 S    
C150  C164  1.474769 S    
C182  H82   1.082875 S    
C81   C85   1.401497 A    
C97   C101  1.401554 A    
C132  C136  1.401497 A    
C170  C173  1.399087 A    
C195  N19   1.438115 S    
C16   C20   1.533185 S    
C155  C159  1.406226 A    
C34   H22   1.110161 S    
C107  C111  1.419527 A    
C71   C75   1.405473 A    
O23   C117  1.285410 A    
C129  C133  1.401524 A    
C167  C176  1.417840 A    
C172  H76   1.083508 S    
Cu12  O48   1.958960 S    
C144  C146  1.397455 A    
C93   H57   1.083280 S    
C9    H5    1.110153 S    
O30   C119  1.292103 A    
C96   H60   1.083270 S    
C30   C34   1.546917 S    
C44   C48   1.394591 A    
N12   O71   1.301033 A    
O19   Cu7   1.958663 S    
O36   C122  1.295480 A    
C103  C107  1.404053 A    
N11   O69   1.301038 A    
N5    O58   1.301420 A    
O5    C1    1.293964 A    
C22   C26   1.545743 S    
O28   Cu7   1.970148 S    
C156  C160  1.406225 A    
O42   Cu9   1.956930 S    
O31   C120  1.292105 A    
N9    O66   1.301341 A    
C54   H34   1.083725 S    
C46   H30   1.083277 S    
Cu9   Cu10  2.685190 S    
C177  C187  1.403449 A    
C114  C162  1.475249 S    
C102  H62   1.083509 S    
C194  N18   1.438130 S    
Cu11  O47   1.958949 S    
C159  Br11  1.931541 S    
C90   H54   1.083227 S    
C101  C105  1.404057 A    
C128  C140  1.481613 S    
C72   C76   1.405476 A    
N15   O77   1.301192 A    
C157  Br9   1.931560 S    
C154  Br6   1.930717 S    
N2    O52   1.300807 A    
C104  C108  1.404056 A    
C59   N3    1.438989 S    
C44   C64   1.404290 A    
C91   C95   1.393687 A    
C192  H88   1.083168 S    
C68   H40   1.083322 S    
C122  C176  1.471549 S    
C96   C100  1.399770 A    
C10   C22   1.546613 S    
C49   C85   1.470719 S    
C14   H2    1.109618 S    
C173  C187  1.475904 S    
C146  C149  1.399933 A    
C52   C88   1.470678 S    
C131  N11   1.437745 S    
C74   C110  1.483104 S    
O12   Cu2   1.969889 S    
C20   C118  1.464835 S    
C130  C139  1.422031 A    
C154  C158  1.406206 A    
C29   H17   1.110144 S    
O1    C1    1.294336 A    
C74   C78   1.405941 A    
C31   H19   1.110143 S    
C25   C29   1.545874 S    
C19   C23   1.534064 S    
C60   N4    1.438989 S    
O18   Cu6   1.958659 S    
C180  C188  1.403444 A    
C145  H69   1.083380 S    
C28   C32   1.545880 S    
C35   H23   1.110160 S    
C15   H3    1.109629 S    
Cu5   O29   1.959089 S    
C166  C175  1.417841 A    
O35   Cu11  1.958702 S    
C190  H86   1.083169 S    
C27   C39   1.534764 S    
C90   C94   1.393687 A    
C91   C111  1.405727 A    
C184  H84   1.082873 S    
N7    O62   1.301420 A    
C183  C186  1.404898 A    
C64   C126  1.471054 S    
Cu9   O45   1.958949 S    
C11   C15   1.547035 S    
C12   C16   1.547035 S    
C52   C56   1.400284 A    
C13   H1    1.109630 S    
C73   C77   1.405938 A    
C189  C199  1.400153 A    
C193  C197  1.417328 A    
C82   C86   1.401484 A    
C67   C71   1.395218 A    
O38   Cu10  1.956647 S    
O41   C123  1.298453 A    
C165  C169  1.399766 A    
C76   C80   1.405941 A    
C65   C69   1.395215 A    
O6    C2    1.293980 A    
O4    Cu2   1.956065 S    
O33   Cu9   1.958702 S    
C179  H79   1.083119 S    
C180  H80   1.083116 S    
C145  C149  1.399933 A    
C95   C99   1.399765 A    
N18   O84   1.300914 A    
O40   Cu12  1.956647 S    
C19   C117  1.464835 S    
N6    O60   1.301415 A    
O43   Cu12  1.956927 S    
O2    Cu1   1.956065 S    
O10   Cu1   1.969889 S    
C168  N16   1.438563 S    
O41   Cu10  1.956927 S    
C8    C40   1.464744 S    
O29   C119  1.292099 A    
Cu10  O46   1.958960 S    
C143  Br3   1.919042 S    
C108  C112  1.419525 A    
C80   C84   1.396886 A    
C141  Br1   1.918986 S    
N16   O79   1.301194 A    
C10   H6    1.110151 S    
C167  C171  1.399766 A    
C168  C172  1.399770 A    
O13   C5    1.286995 A    
C84   C88   1.401483 A    
C28   H16   1.110149 S    
C129  N9    1.437735 S    
N7    O61   1.301436 A    
C78   C82   1.396889 A    
C80   H48   1.082994 S    
C57   N1    1.438989 S    
C77   C81   1.396883 A    
O24   Cu8   1.969906 S    
C79   H47   1.082993 S    
C54   C58   1.403338 A    
O27   Cu8   1.970148 S    
C103  H63   1.083511 S    
C120  C198  1.472314 S    
N11   O70   1.301348 A    
C130  C134  1.401523 A    
C7    C39   1.464744 S    
C48   H32   1.083273 S    
C155  C164  1.407733 A    
O37   C123  1.297475 A    
C6    C38   1.464751 S    
C42   C46   1.394588 A    
O34   Cu10  1.958691 S    
C165  C175  1.417839 A    
O16   C8    1.286988 A    
O17   C113  1.293458 A    
C147  H71   1.083362 S    
C189  H85   1.083166 S    
C142  C151  1.409532 A    
N17   O82   1.300911 A    
C172  C174  1.399083 A    
O17   Cu5   1.958663 S    
O46   C127  1.301778 A    
C12   C40   1.532952 S    
O11   C7    1.285577 A    
C169  C173  1.399085 A    
O12   C8    1.285577 A    
C65   C85   1.401519 A    
O1    Cu1   1.956069 S    
O22   C116  1.285412 A    
C75   C79   1.405944 A    
C119  C197  1.472291 S    
Cu8   O32   1.959092 S    
C99   C103  1.401569 A    
C49   C53   1.400301 A    
C73   C109  1.483109 S    
C106  N6    1.438643 S    
C141  C147  1.397482 A    
C2    C98   1.471233 S    
C142  C148  1.397481 A    
C16   H4    1.109626 S    
C159  C162  1.412171 A    
C167  N15   1.438566 S    
N14   O76   1.301384 A    
C156  Br8   1.930678 S    
C101  H61   1.083514 S    
O11   Cu2   1.969877 S    
C171  H75   1.083507 S    
O28   C118  1.285054 A    
C95   H59   1.083273 S    
C158  Br10  1.931572 S    
C113  C161  1.475253 S    
O42   C124  1.298453 A    
C66   H38   1.083321 S    
O37   Cu9   1.956647 S    
C105  C109  1.419533 A    
C105  N5    1.438644 S    
C71   H43   1.082952 S    
N19   O85   1.301362 A    
C90   C110  1.405725 A    
O18   C113  1.293450 A    
C17   C21   1.534065 S    
C12   H8    1.110155 S    
C76   C112  1.483108 S    
C55   C59   1.403332 A    
C58   C62   1.418193 A    
C171  C174  1.399087 A    
O39   C125  1.297477 A    
C196  C198  1.417331 A    
C42   C62   1.404283 A    
C69   H41   1.082953 S    
O2    C2    1.294347 A    
N10   O67   1.301034 A    
N20   O87   1.301363 A    
C26   C30   1.545871 S    
C143  C145  1.397454 A    
N12   O72   1.301346 A    
C146  H70   1.083379 S    
C25   H13   1.110149 S    
O14   Cu3   1.969668 S    
C121  C175  1.471541 S    
C132  N12   1.437742 S    
Cu1   Cu3   2.669974 S    
O34   C121  1.295476 A    
N5    O57   1.301456 A    
C18   C22   1.534074 S    
Cu2   Cu4   2.669974 S    
C155  Br7   1.930682 S    
C89   C93   1.393684 A    
N9    O65   1.301039 A    
C179  C181  1.394393 A    
C191  H87   1.083168 S    
C51   C87   1.470681 S    
C143  C152  1.409567 A    
C184  C186  1.404897 A    
C181  H81   1.082875 S    
C50   C54   1.400287 A    
N4    O55   1.301415 A    
C67   C87   1.401507 A    
C106  C110  1.419521 A    
C189  C193  1.399737 A    
O35   C122  1.295477 A    
O33   C121  1.295477 A    
C82   H50   1.083255 S    
C195  C198  1.417328 A    
O38   C124  1.297477 A    
C134  C137  1.395168 A    
C179  C188  1.403449 A    
C66   C70   1.395218 A    
C24   C28   1.545734 S    
