data_mof_unit_pretest_333.cif
_audit_creation_date              2012-12-10T20:28:42-0500
_audit_creation_method            fapswitch 2.2
_symmetry_space_group_name_H-M    P1
_symmetry_Int_Tables_number       1
_space_group_crystal_system       triclinic
_cell_length_a                    10.684204
_cell_length_b                    10.590816
_cell_length_c                    9.878605
_cell_angle_alpha                 90.039037
_cell_angle_beta                  89.277599
_cell_angle_gamma                 90.370789
_cell_volume                      1117.6955505

loop_
_atom_site_label
_atom_site_type_symbol
_atom_type_description
_atom_site_fract_x
_atom_site_fract_y
_atom_site_fract_z
_atom_type_partial_charge
C1    C     C_R   0.499557 0.260441 0.500086 0.890851
C2    C     C_R   0.056752 0.503334 0.630234 0.062434
C3    C     C_R   0.124409 0.489997 0.506250 -0.098901
C4    C     C_R   0.063380 0.497156 0.382201 -0.219253
C5    C     C_R   0.937103 0.516574 0.379645 -0.234247
C6    C     C_R   0.871836 0.538126 0.500529 -0.125440
C7    C     C_R   0.388147 0.063566 0.521252 0.028725
C8    C     C_R   0.499790 0.128540 0.498585 -0.108803
C9    C     C_R   0.606060 0.065984 0.449891 -0.221142
C10   C     C_R   0.605218 0.935349 0.447041 -0.233543
C11   C     C_R   0.499286 0.871180 0.496013 -0.053058
C12   C     C_R   0.259257 0.492090 0.501704 0.882071
C13   C     C_R   0.388143 0.934548 0.520648 0.053362
C14   C     C_3   0.296132 0.924389 0.635151 -0.526653
C15   C     C_3   0.296516 0.068460 0.636860 0.025976
C16   C     C_R   0.516787 0.389992 0.070572 0.211398
C17   C     C_R   0.491144 0.609745 0.072008 -0.153309
C18   C     C_R   0.490826 0.609712 0.928412 -0.157720
C19   C     C_R   0.517328 0.391044 0.927825 0.189460
C20   C     C_3   0.437176 0.277193 0.917620 -0.521558
C21   C     C_3   0.432658 0.274934 0.071184 -0.064802
C22   C     C_R   0.499721 0.739477 0.499643 0.895633
C23   C     C_R   0.738872 0.516418 0.499760 0.904030
C24   C     C_R   0.103938 0.470358 0.758759 -0.151404
C25   C     C_R   0.042437 0.507145 0.877301 -0.203532
C26   C     C_R   0.935166 0.579992 0.870094 -0.214358
C27   C     C_R   0.882098 0.606030 0.744198 0.262253
C28   C     C_R   0.935689 0.552072 0.624546 0.059973
H1    H     H_    0.112588 0.485374 0.286460 0.166320
H2    H     H_    0.337404 0.882274 0.727378 0.191657
H3    H     H_    0.335823 0.110813 0.729755 0.155721
H4    H     H_    0.482328 0.698240 0.125706 0.162629
H5    H     H_    0.481631 0.698175 0.875083 0.153929
H6    H     H_    0.345072 0.297368 0.872020 0.175699
H7    H     H_    0.489604 0.198273 0.869529 0.207908
H8    H     H_    0.337582 0.294111 0.113469 0.168265
H9    H     H_    0.185341 0.412036 0.769890 0.168228
H10   H     H_    0.080667 0.482922 0.974836 0.144612
H11   H     H_    0.893514 0.616662 0.962467 0.132984
H12   H     H_    0.890315 0.510636 0.283118 0.171814
H13   H     H_    0.689576 0.117616 0.419073 0.150967
H14   H     H_    0.688183 0.884927 0.414290 0.145951
H15   H     H_    0.206342 0.880746 0.602940 0.206555
N1    N     N_R   0.499160 0.499140 0.142800 -0.122314
N2    N     N_R   0.499160 0.499180 0.857150 -0.105931
O1    O     O_R   0.500020 0.316790 0.614690 -0.622694
O2    O     O_R   0.500000 0.316760 0.385350 -0.613644
O3    O     O_R   0.316770 0.500020 0.614690 -0.624665
O4    O     O_R   0.316760 0.499980 0.385350 -0.621897
O5    O     O_R   0.500000 0.683240 0.614650 -0.619312
O6    O     O_R   0.499980 0.683210 0.385310 -0.630778
O7    O     O_R   0.683240 0.500020 0.614650 -0.599706
O8    O     O_R   0.683230 0.499980 0.385310 -0.627559
Zn1   Zn    Zn3+2 0.500010 0.500020 0.653130 0.945564
Zn2   Zn    Zn3+2 0.499990 0.499980 0.346870 0.939217
N3    N     N_2   0.178445 0.123343 0.596638 -0.293227
H16   H     H_    0.143389 0.090479 0.506186 0.239036
C29   C     C_3   0.085002 0.131856 0.703262 -0.791019
H17   H     H_    0.003811 0.186583 0.666744 0.245176
H18   H     H_    0.123916 0.181057 0.792876 0.236317
H19   H     H_    0.052505 0.035956 0.733207 0.241017
C30   C     C_3   0.492071 0.154962 0.127917 -0.823867
H20   H     H_    0.465000 0.071289 0.066735 0.228150
H21   H     H_    0.595864 0.162145 0.129549 0.241404
H22   H     H_    0.455217 0.137232 0.230974 0.260571
N4    N     N_2   0.782250 0.694267 0.738014 -0.279494
H23   H     H_    0.731419 0.702497 0.827013 0.224522
C31   C     C_3   0.818407 0.815951 0.683496 -0.836341
H24   H     H_    0.736113 0.879309 0.683923 0.251613
H25   H     H_    0.853563 0.806053 0.577770 0.240911
H26   H     H_    0.892254 0.859628 0.746787 0.237269

loop_
_geom_bond_atom_site_label_1
_geom_bond_atom_site_label_2
_ccdc_geom_bond_type
C17   C18   A    
N4    C31   S    
C19   N2    A    
C12   O4    A    
C16   C21   S    
C2    C3    A    
C25   H10   S    
C10   H14   S    
C1    C8    S    
C2    C28   A    
C9    C10   A    
C16   N1    A    
C11   C22   S    
C9    H13   S    
C19   C20   S    
C22   O5    A    
C12   O3    A    
C20   H6    S    
C15   N3    S    
O1    Zn1   S    
C29   H19   S    
C7    C15   S    
C24   H9    S    
C23   O7    A    
C17   N1    A    
C7    C8    A    
C20   C21   S    
C27   N4    S    
O5    Zn1   S    
C13   C14   S    
C24   C25   A    
O3    Zn1   S    
C4    C5    A    
C11   C13   A    
N1    Zn2   S    
C21   C30   S    
C30   H20   S    
C14   H2    S    
C31   H26   S    
C6    C23   S    
C31   H25   S    
N3    C29   S    
O7    Zn1   S    
N2    Zn1   S    
C23   O8    A    
O6    Zn2   S    
C16   C19   A    
C26   C27   A    
C5    C6    A    
C26   H11   S    
C18   H5    S    
C1    O1    A    
C29   H17   S    
C2    C24   A    
C10   C11   A    
O8    Zn2   S    
C29   H18   S    
C3    C4    A    
C18   N2    A    
C7    C13   A    
N4    H23   S    
N3    H16   S    
O2    Zn2   S    
C5    H12   S    
C27   C28   A    
C21   H8    S    
C17   H4    S    
C14   C15   S    
C14   H15   S    
C30   H21   S    
C3    C12   S    
C30   H22   S    
C25   C26   A    
O4    Zn2   S    
C20   H7    S    
C15   H3    S    
C31   H24   S    
C22   O6    A    
C6    C28   A    
C4    H1    S    
C1    O2    A    
C8    C9    A    
