data_mof_unit_pretest_324.cif
_audit_creation_date              2012-12-11T17:16:57-0500
_audit_creation_method            fapswitch 2.2
_symmetry_space_group_name_H-M    P1
_symmetry_Int_Tables_number       1
_space_group_crystal_system       triclinic
_cell_length_a                    6.941078
_cell_length_b                    13.369314
_cell_length_c                    14.673174
_cell_angle_alpha                 98.852625
_cell_angle_beta                  89.835716
_cell_angle_gamma                 90.24096
_cell_volume                      1345.39733282

loop_
_atom_site_label
_atom_site_type_symbol
_atom_type_description
_atom_site_fract_x
_atom_site_fract_y
_atom_site_fract_z
_atom_type_partial_charge
O1    O     O_R   0.354890 0.151580 0.148210 -0.528675
O2    O     O_R   0.645110 0.848420 0.851790 -0.528675
O3    O     O_R   0.682370 0.152980 0.336770 -0.545027
O4    O     O_R   0.317630 0.847020 0.663230 -0.545026
O5    O     O_R   0.854980 0.348430 0.351800 -0.538351
O6    O     O_R   0.145020 0.651570 0.648200 -0.538350
C1    C     C_R   0.513376 0.131274 0.366424 0.674930
C2    C     C_R   0.486624 0.868726 0.633576 0.674930
O7    O     O_R   0.684450 0.139580 0.148000 -0.536273
O8    O     O_R   0.315550 0.860420 0.852000 -0.536273
O9    O     O_R   0.857080 0.334940 0.161680 -0.539056
O10   O     O_R   0.142920 0.665060 0.838320 -0.539055
C3    C     C_R   0.515530 0.112694 0.114005 0.762758
C4    C     C_R   0.484470 0.887306 0.885995 0.762758
O11   O     O_R   0.352790 0.165070 0.338330 -0.543165
O12   O     O_R   0.647210 0.834930 0.661670 -0.543165
O13   O     O_3   0.522170 0.314120 0.254710 -0.368311
O14   O     O_3   0.477830 0.685880 0.745290 -0.368311
V1    V     V_3+5 0.796120 0.238110 0.249130 1.454318
V2    V     V_3+5 0.203880 0.761890 0.750870 1.454319
O15   O     O_R   0.186930 0.347040 0.163240 -0.531738
O16   O     O_R   0.813070 0.652960 0.836760 -0.531737
C5    C     C_R   0.018329 0.368610 0.133541 0.739252
C6    C     C_R   0.981671 0.631390 0.866459 0.739251
O17   O     O_R   0.184850 0.360440 0.352010 -0.541026
O18   O     O_R   0.815150 0.639560 0.647990 -0.541025
C7    C     C_R   0.015829 0.387333 0.385982 0.723260
C8    C     C_R   0.984171 0.612667 0.614018 0.723259
V3    V     V_3+5 0.296410 0.261900 0.250880 1.461894
V4    V     V_3+5 0.703590 0.738100 0.749120 1.461894
O19   O     O_3   0.020490 0.185890 0.245290 -0.370223
O20   O     O_3   0.979510 0.814110 0.754710 -0.370223
C9    C     C_1   0.005145 0.466909 0.466341 -0.182626
C10   C     C_1   0.994855 0.533091 0.533659 -0.182626
C11   C     C_3   0.178556 0.531862 0.982877 -0.145306
C12   C     C_3   0.821444 0.468137 0.017123 -0.145306
C13   C     C_3   0.076868 0.549622 0.078321 -0.176032
C14   C     C_3   0.923132 0.450378 0.921679 -0.176032
H1    H     H_    0.139804 0.590377 0.143102 0.145683
H2    H     H_    0.860196 0.409623 0.856898 0.145682
H3    H     H_    0.326199 0.557750 0.968466 0.161092
H4    H     H_    0.673801 0.442250 0.031534 0.161092
C15   C     C_3   0.008660 0.438499 0.062676 -0.083439
C16   C     C_3   0.991340 0.561501 0.937324 -0.083440
C17   C     C_3   0.109601 0.420428 0.968211 0.184671
C18   C     C_3   0.890399 0.579572 0.031789 0.184671
C19   C     C_3   0.319307 0.026281 0.481522 -0.118678
C20   C     C_3   0.680693 0.973719 0.518477 -0.118678
C21   C     C_3   0.397965 0.916692 0.467653 -0.136135
C22   C     C_3   0.602035 0.083308 0.532347 -0.136135
H5    H     H_    0.313796 0.847490 0.441445 0.110348
H6    H     H_    0.686204 0.152510 0.558555 0.110348
H7    H     H_    0.170136 0.048079 0.466024 0.113184
H8    H     H_    0.829864 0.951921 0.533976 0.113184
C23   C     C_3   0.495726 0.938752 0.562727 -0.010960
C24   C     C_3   0.504274 0.061248 0.437273 -0.010960
C25   C     C_3   0.417044 0.047515 0.577404 -0.135776
C26   C     C_3   0.582956 0.952485 0.422596 -0.135777
H9    H     H_    0.348892 0.086287 0.641736 0.126768
H10   H     H_    0.651108 0.913713 0.358263 0.126768
C27   C     C_1   0.504936 0.033104 0.033656 -0.137795
C28   C     C_1   0.495064 0.966896 0.966344 -0.137795
I1    I     I_    0.287725 0.294382 0.916391 -0.489565
I2    I     I_    0.712275 0.705618 0.083609 -0.489565

loop_
_geom_bond_atom_site_label_1
_geom_bond_atom_site_label_2
_ccdc_geom_bond_type
C20   C23   S    
V4    O20   S    
O13   V3    S    
C12   H4    S    
O4    C2    A    
V1    O19   S    
C19   C21   S    
C7    C9    S    
C20   H8    S    
O9    V1    S    
C11   C13   S    
O3    C1    A    
C25   H9    S    
O12   V4    S    
C4    C28   S    
C5    C15   S    
O7    C3    A    
C14   C17   S    
O5    C7    A    
O7    V1    S    
O6    C8    A    
O8    V2    S    
C21   H5    S    
C22   H6    S    
O3    V1    S    
O14   V4    S    
C19   H7    S    
C20   C22   S    
C8    C10   S    
C2    O12   A    
C1    C24   S    
C11   H3    S    
C2    C23   S    
C16   C18   S    
O11   V3    S    
O17   V3    S    
O8    C4    A    
C1    O11   A    
C21   C23   S    
O15   V3    S    
C17   I1    S    
C22   C24   S    
C21   C26   S    
C18   I2    S    
C13   C15   S    
C14   C16   S    
C19   C25   S    
O10   V2    S    
O1    V3    S    
C9    C10   T    
C12   C18   S    
C11   C16   S    
C15   C17   S    
O18   V4    S    
C23   C25   S    
C6    C16   S    
O16   C6    A    
O1    C3    A    
C12   C14   S    
C11   C17   S    
V2    O20   S    
O16   V4    S    
C22   C25   S    
C20   C26   S    
O5    V1    S    
O17   C7    A    
O6    V2    S    
O10   C6    A    
O18   C8    A    
O2    V4    S    
O15   C5    A    
V3    O19   S    
C14   H2    S    
O9    C5    A    
O13   V1    S    
C24   C26   S    
O14   V2    S    
C27   C28   T    
O2    C4    A    
O4    V2    S    
C3    C27   S    
C13   H1    S    
C12   C15   S    
C13   C18   S    
C26   H10   S    
C19   C24   S    
