data_mof_unit_pretest_955.cif
_audit_creation_date              2012-12-10T20:48:45-0500
_audit_creation_method            fapswitch 2.2
_symmetry_space_group_name_H-M    P1
_symmetry_Int_Tables_number       1
_space_group_crystal_system       triclinic
_cell_length_a                    15.724311
_cell_length_b                    8.942472
_cell_length_c                    8.121708
_cell_angle_alpha                 89.956867
_cell_angle_beta                  89.540185
_cell_angle_gamma                 90.293782
_cell_volume                      1141.97541309

loop_
_atom_site_label
_atom_site_type_symbol
_atom_type_description
_atom_site_fract_x
_atom_site_fract_y
_atom_site_fract_z
_atom_type_partial_charge
C1    C     C_R   0.500000 0.218014 0.500035 0.933897
C2    C     C_3   0.050630 0.296140 0.434518 -0.195107
C3    C     C_3   0.948619 0.477222 0.687319 -0.163689
C4    C     C_3   0.950849 0.308330 0.411780 -0.177830
C5    C     C_1   0.750608 0.487134 0.498115 -0.212605
C6    C     C_1   0.249535 0.480972 0.503088 -0.200406
C7    C     C_3   0.083427 0.447889 0.511475 0.251851
C8    C     C_3   0.916180 0.453423 0.504857 0.240952
C9    C     C_3   0.953782 0.588658 0.405494 -0.490443
C10   C     C_3   0.051205 0.577711 0.399301 -0.479145
C11   C     C_R   0.896269 0.412030 0.831520 0.150396
C12   C     C_1   0.825323 0.470693 0.498862 -0.088415
C13   C     C_R   0.868056 0.263078 0.835470 -0.180745
C14   C     C_R   0.810729 0.212405 0.955752 -0.141256
C15   C     C_R   0.779031 0.311170 0.073475 -0.058357
C16   C     C_R   0.806037 0.459760 0.072518 -0.141346
C17   C     C_R   0.865096 0.509322 0.955074 -0.190833
C18   C     C_R   0.899910 0.162208 0.388675 0.099867
C19   C     C_R   0.930721 0.059275 0.270601 -0.121920
C20   C     C_R   0.885851 0.928679 0.233360 -0.165765
C21   C     C_R   0.808885 0.897550 0.312628 -0.125573
C22   C     C_R   0.776502 0.997698 0.428219 -0.146713
C23   C     C_1   0.174847 0.462731 0.506933 -0.086704
C24   C     C_R   0.820835 0.129357 0.464924 -0.181317
C25   C     C_R   0.097124 0.396932 0.830378 0.133886
C26   C     C_R   0.077480 0.253273 0.889763 -0.099023
C27   C     C_R   0.132550 0.178143 0.995479 -0.166922
C28   C     C_R   0.207027 0.247348 0.048436 -0.126600
C29   C     C_R   0.225009 0.393719 0.000776 -0.103283
C30   C     C_R   0.170649 0.467990 0.893382 -0.172577
C31   C     C_R   0.090272 0.152985 0.507907 0.152610
C32   C     C_R   0.044490 0.043067 0.596816 -0.132028
C33   C     C_R   0.085328 0.920346 0.666350 -0.189803
C34   C     C_R   0.337821 0.498781 0.500712 0.898412
C35   C     C_R   0.171988 0.898503 0.639844 -0.112238
C36   C     C_R   0.217754 0.999517 0.543015 -0.118329
C37   C     C_R   0.177327 0.124474 0.477100 -0.152226
C38   C     C_R   0.662190 0.500688 0.499358 0.895824
C39   C     C_1   0.500077 0.934817 0.499930 -0.212839
C40   C     C_1   0.500053 0.065176 0.500040 -0.208926
C41   C     C_R   0.500070 0.781968 0.499957 0.926336
C42   C     C_3   0.048442 0.475154 0.690967 -0.168054
H1    H     H_    0.078841 0.686975 0.437073 0.205541
H2    H     H_    0.790023 0.096782 0.956101 0.141779
H3    H     H_    0.733616 0.272704 0.165174 0.148763
H4    H     H_    0.780727 0.537528 0.161764 0.141785
H5    H     H_    0.884076 0.625854 0.957701 0.104063
H6    H     H_    0.989539 0.081343 0.205058 0.118137
H7    H     H_    0.910758 0.851997 0.142204 0.118125
H8    H     H_    0.774126 0.796246 0.284021 0.128083
H9    H     H_    0.716311 0.974016 0.488727 0.134499
H10   H     H_    0.791491 0.202543 0.552766 0.151293
H11   H     H_    0.021561 0.195693 0.852386 0.130387
H12   H     H_    0.072084 0.559253 0.269484 0.193124
H13   H     H_    0.118054 0.065020 0.034399 0.130515
H14   H     H_    0.250897 0.187534 0.125922 0.129859
H15   H     H_    0.282251 0.448512 0.043564 0.152629
H16   H     H_    0.188301 0.579516 0.853988 0.116833
H17   H     H_    0.977987 0.051573 0.620586 0.129041
H18   H     H_    0.049210 0.843006 0.741896 0.114682
H19   H     H_    0.203466 0.802716 0.692461 0.120160
H20   H     H_    0.284748 0.981386 0.519084 0.127191
H21   H     H_    0.214752 0.198505 0.400664 0.122774
H22   H     H_    0.935224 0.697625 0.461098 0.203131
H23   H     H_    0.929061 0.591870 0.277764 0.186013
H24   H     H_    0.076533 0.295274 0.306302 0.133224
H25   H     H_    0.065485 0.594205 0.713673 0.109481
H26   H     H_    0.945695 0.344030 0.280444 0.160554
H27   H     H_    0.934806 0.598365 0.705998 0.118729
H28   H     H_    0.890024 0.185475 0.745897 0.119139
N1    N     N_1   0.500000 0.500030 0.073640 -0.041927
N2    N     N_1   0.500000 0.500030 0.926360 -0.037890
O1    O     O_R   0.500000 0.285340 0.636850 -0.611367
O2    O     O_R   0.500000 0.285340 0.363150 -0.618136
O3    O     O_R   0.377140 0.500000 0.636930 -0.613915
O4    O     O_R   0.377140 0.500000 0.363070 -0.628024
O5    O     O_R   0.622860 0.500000 0.636930 -0.602073
O6    O     O_R   0.622860 0.500000 0.363070 -0.629283
O7    O     O_R   0.500000 0.714650 0.636900 -0.616006
O8    O     O_R   0.500000 0.714650 0.363100 -0.614655
Zn1   Zn    Zn3+2 0.500000 0.499990 0.682780 0.984766
Zn2   Zn    Zn3+2 0.500000 0.499990 0.317220 0.965963

loop_
_geom_bond_atom_site_label_1
_geom_bond_atom_site_label_2
_ccdc_geom_bond_type
C24   H10   S    
C7    C10   S    
C3    C42   S    
C9    H22   S    
C2    C7    S    
C4    C8    S    
C41   O8    A    
C28   H14   S    
C39   C41   S    
C26   C27   A    
C29   C30   A    
C18   C24   A    
C1    O2    A    
C21   C22   A    
C36   C37   A    
C3    H27   S    
C27   H13   S    
C13   H28   S    
C15   C16   A    
C18   C19   A    
C7    C42   S    
C1    C40   S    
C11   C17   A    
C19   C20   A    
C8    C9    S    
C9    C10   S    
N2    Zn1   S    
C34   O3    A    
N1    Zn2   S    
C4    C18   S    
C13   C14   A    
O2    Zn2   S    
C36   H20   S    
O1    Zn1   S    
C21   H8    S    
C37   H21   S    
C5    C12   T    
O8    Zn2   S    
C3    C8    S    
C16   H4    S    
C39   C40   T    
O7    Zn1   S    
C19   H6    S    
O3    Zn1   S    
C38   O6    A    
C25   C26   A    
C4    H26   S    
C6    C34   S    
C2    C31   S    
C35   C36   A    
C2    C4    S    
C20   H7    S    
O6    Zn2   S    
C31   C32   A    
O5    Zn1   S    
C8    C12   S    
C35   H19   S    
C29   H15   S    
C33   H18   S    
C42   H25   S    
C22   C24   A    
C15   H3    S    
O4    Zn2   S    
C26   H11   S    
C14   H2    S    
C25   C30   A    
C28   C29   A    
C10   H1    S    
C17   H5    S    
C2    H24   S    
C25   C42   S    
C41   O7    A    
C38   O5    A    
C1    O1    A    
C32   C33   A    
N1    N2    T    
C11   C13   A    
C16   C17   A    
C7    C23   S    
C6    C23   T    
C30   H16   S    
C33   C35   A    
C10   H12   S    
C9    H23   S    
C3    C11   S    
C31   C37   A    
C20   C21   A    
C27   C28   A    
C14   C15   A    
C32   H17   S    
C5    C38   S    
C34   O4    A    
C22   H9    S    
