data_mof_unit_pretest_927.cif
_audit_creation_date              2012-12-11T16:23:56-0500
_audit_creation_method            fapswitch 2.2
_symmetry_space_group_name_H-M    P1
_symmetry_Int_Tables_number       1
_space_group_crystal_system       triclinic
_cell_length_a                    14.738017
_cell_length_b                    14.738904
_cell_length_c                    33.238237
_cell_angle_alpha                 96.400001
_cell_angle_beta                  96.440179
_cell_angle_gamma                 61.088221
_cell_volume                      6266.71278787

loop_
_atom_site_label
_atom_site_type_symbol
_atom_type_description
_atom_site_fract_x
_atom_site_fract_y
_atom_site_fract_z
_atom_type_partial_charge
C1    C     C_R   0.390639 0.700778 0.446093 0.565919
C2    C     C_R   0.299422 0.332891 0.313028 -0.022216
C3    C     C_R   0.403597 0.278365 0.326201 -0.157834
C4    C     C_R   0.436838 0.285245 0.366772 0.213096
C5    C     C_R   0.371219 0.239676 0.171367 0.073488
C6    C     C_R   0.371186 0.228766 0.128747 -0.121026
C7    C     C_R   0.192293 0.364713 0.123718 -0.120921
C8    C     C_R   0.191087 0.375922 0.165861 -0.133612
C9    C     C_R   0.278453 0.311766 0.189860 0.013343
C10   C     C_1   0.272652 0.323246 0.233292 0.028647
C11   C     C_1   0.276919 0.329565 0.269832 0.035531
C12   C     C_R   0.404894 0.384630 0.434353 0.584002
C13   C     C_R   0.280971 0.288224 0.104594 -0.002643
C14   C     C_R   0.759257 0.370585 0.410928 -0.039360
C15   C     C_R   0.809405 0.421498 0.398197 -0.121639
C16   C     C_R   0.844860 0.398922 0.359380 -0.142491
C17   C     C_R   0.829174 0.326589 0.332651 0.034563
C18   C     C_R   0.780604 0.273304 0.345471 0.273910
C19   C     C_R   0.751014 0.292260 0.385238 -0.108842
C20   C     C_R   0.860910 0.305838 0.209240 0.397042
C21   C     C_R   0.847825 0.320700 0.290261 0.331525
C22   C     C_R   0.874639 0.382590 0.148576 0.038144
C23   C     C_R   0.701421 0.409372 0.447725 0.547112
C24   C     C_R   0.890902 0.374532 0.107633 -0.131681
C25   C     C_R   0.905233 0.203148 0.099618 -0.128972
C26   C     C_R   0.881173 0.211929 0.140036 0.029513
C27   C     C_R   0.871043 0.300241 0.165409 -0.005794
C28   C     C_R   0.913408 0.282670 0.083733 -0.024993
C29   C     C_R   0.370542 0.758125 0.408943 -0.043431
C30   C     C_R   0.276879 0.785468 0.384503 0.232894
C31   C     C_R   0.271368 0.804431 0.343401 0.264669
C32   C     C_R   0.354418 0.808180 0.327890 -0.022341
C33   C     C_R   0.441309 0.794246 0.353464 -0.190035
C34   C     C_R   0.393439 0.701814 0.561133 0.531214
C35   C     C_R   0.450008 0.771322 0.393889 -0.009572
C36   C     C_R   0.350961 0.825518 0.203166 0.388836
C37   C     C_R   0.354339 0.820391 0.284534 0.336547
C38   C     C_R   0.264470 0.824570 0.134192 0.017861
C39   C     C_R   0.240242 0.861872 0.095544 -0.131302
C40   C     C_R   0.389445 0.891052 0.102619 -0.136371
C41   C     C_R   0.413677 0.857786 0.142602 0.263969
C42   C     C_R   0.346633 0.830180 0.158910 0.040461
C43   C     C_R   0.299030 0.900071 0.080403 -0.046472
C44   C     C_R   0.367783 0.364180 0.583322 0.032976
C45   C     C_R   0.406270 0.387775 0.548525 0.577718
C46   C     C_R   0.277043 0.441316 0.601552 0.223334
C47   C     C_R   0.257426 0.426897 0.640256 -0.131386
C48   C     C_R   0.328290 0.339853 0.661196 -0.055268
C49   C     C_R   0.411353 0.259536 0.641141 -0.114496
C50   C     C_R   0.429172 0.268897 0.601954 0.217985
C51   C     C_R   0.318930 0.335131 0.786112 0.372591
C52   C     C_R   0.320158 0.335721 0.704645 0.348386
C53   C     C_R   0.218215 0.389419 0.846486 -0.177126
C54   C     C_R   0.205011 0.380191 0.886363 0.012542
C55   C     C_R   0.391196 0.259902 0.895607 0.002708
C56   C     C_R   0.701958 0.413664 0.562580 0.538814
C57   C     C_R   0.403746 0.273469 0.855395 0.025416
C58   C     C_R   0.314863 0.333167 0.830129 -0.035163
C59   C     C_R   0.290011 0.306734 0.910142 -0.039022
C60   C     C_R   0.757122 0.381766 0.602566 0.016368
C61   C     C_R   0.792910 0.445014 0.626188 -0.129709
C62   C     C_R   0.824102 0.428842 0.667107 -0.112575
C63   C     C_R   0.820491 0.349065 0.684735 0.029746
C64   C     C_R   0.791573 0.281520 0.660955 -0.092928
C65   C     C_R   0.760187 0.297562 0.619987 -0.114322
C66   C     C_R   0.930514 0.220206 0.819288 0.229222
C67   C     C_R   0.364776 0.356344 0.394494 -0.041392
C68   C     C_R   0.935590 0.201605 0.860255 0.012487
C69   C     C_R   0.841906 0.388902 0.877359 0.028028
C70   C     C_R   0.821488 0.405975 0.835286 0.015618
C71   C     C_R   0.870236 0.321345 0.806753 -0.021790
C72   C     C_1   0.852631 0.334112 0.763776 0.076155
C73   C     C_1   0.838935 0.341169 0.727706 0.016307
C74   C     C_R   0.904846 0.286215 0.889869 -0.062112
C75   C     C_R   0.378787 0.751785 0.602429 -0.011190
C76   C     C_R   0.278938 0.810778 0.616580 -0.146704
C77   C     C_R   0.265317 0.837453 0.658276 0.064284
C78   C     C_R   0.256764 0.403393 0.382451 0.007728
C79   C     C_R   0.354583 0.802095 0.685689 0.012892
C80   C     C_R   0.453798 0.749845 0.671144 -0.140155
C81   C     C_R   0.465969 0.725584 0.629846 -0.135180
C82   C     C_R   0.366089 0.916381 0.827899 -0.171186
C83   C     C_R   0.345938 0.949107 0.868217 -0.133978
C84   C     C_R   0.262532 0.842245 0.869351 -0.067022
C85   C     C_R   0.282556 0.808749 0.828261 0.313468
C86   C     C_R   0.333137 0.848150 0.807775 0.051954
C87   C     C_1   0.342538 0.828070 0.764931 0.057455
C88   C     C_1   0.347989 0.816062 0.728817 0.042207
C89   C     C_R   0.223982 0.392209 0.341227 0.242306
C90   C     C_R   0.291402 0.914802 0.888941 -0.001703
C91   C     C_R   0.963922 0.264553 0.045765 0.563504
C92   C     C_R   0.271116 0.258350 0.060860 0.557045
C93   C     C_R   0.259583 0.959376 0.043759 0.551169
C94   C     C_R   0.960166 0.268199 0.931042 0.585559
C95   C     C_R   0.271076 0.265203 0.945504 0.563569
C96   C     C_R   0.256444 0.964580 0.929125 0.545215
Cr1   Cr    Cr6+3 0.576280 0.580550 0.506370 1.043713
Cr2   Cr    Cr6+3 0.346780 0.572400 0.496520 1.086362
Cr3   Cr    Cr6+3 0.576960 0.347070 0.497150 1.027587
Cr4   Cr    Cr6+3 0.087320 0.083240 0.984860 1.072274
Cr5   Cr    Cr6+3 0.087720 0.316210 0.996740 1.078193
Cr6   Cr    Cr6+3 0.317350 0.090340 0.995890 1.051317
H1    H     H_    0.439914 0.169746 0.114382 0.155678
H2    H     H_    0.712617 0.252144 0.394604 0.187353
H3    H     H_    0.896960 0.436665 0.095580 0.163077
H4    H     H_    0.879890 0.441727 0.349446 0.148136
H5    H     H_    0.920017 0.133128 0.080752 0.173606
H6    H     H_    0.173664 0.863257 0.077496 0.191398
H7    H     H_    0.503253 0.801192 0.341676 0.169717
H8    H     H_    0.437264 0.914687 0.089056 0.123740
H9    H     H_    0.188805 0.485071 0.654698 0.137684
H10   H     H_    0.465004 0.189652 0.656145 0.160967
H11   H     H_    0.461146 0.232005 0.304474 0.168661
H12   H     H_    0.151176 0.439726 0.827601 0.161022
H13   H     H_    0.788998 0.219268 0.674467 0.139623
H14   H     H_    0.732804 0.247771 0.602661 0.153331
H15   H     H_    0.791619 0.510417 0.613662 0.129995
H16   H     H_    0.846818 0.481171 0.685349 0.131176
H17   H     H_    0.368342 0.005730 0.882521 0.167627
H18   H     H_    0.404259 0.947336 0.811938 0.138582
H19   H     H_    0.522348 0.724295 0.691985 0.127535
H20   H     H_    0.543930 0.679812 0.619769 0.140541
H21   H     H_    0.211681 0.831926 0.595258 0.138653
H22   H     H_    0.223344 0.813587 0.885812 0.125490
H23   H     H_    0.120741 0.433191 0.179742 0.147036
H24   H     H_    0.121263 0.412237 0.106136 0.146870
H25   H     H_    0.816962 0.482033 0.417522 0.172254
N1    N     N_R   0.791434 0.395434 0.228092 -0.178859
N2    N     N_R   0.250723 0.420208 0.726116 -0.226418
N3    N     N_R   0.388250 0.250618 0.724671 -0.231994
N4    N     N_R   0.387148 0.250042 0.764570 -0.198193
N5    N     N_R   0.785229 0.402834 0.267950 -0.238579
N6    N     N_R   0.916898 0.230583 0.271581 -0.164252
N7    N     N_R   0.924381 0.223807 0.231707 -0.167600
N8    N     N_R   0.441445 0.767887 0.224730 -0.139993
N9    N     N_R   0.442954 0.765111 0.264721 -0.232033
N10   N     N_R   0.264625 0.880105 0.263034 -0.153970
N11   N     N_R   0.263064 0.882776 0.223121 -0.206832
N12   N     N_R   0.249699 0.419651 0.766030 -0.236412
O1    O     O_R   0.679450 0.499830 0.463150 -0.491926
O2    O     O_R   0.356040 0.477400 0.534170 -0.445264
O3    O     O_R   0.495910 0.323070 0.537100 -0.489806
O4    O     O_R   0.663920 0.359620 0.542290 -0.500577
O5    O     O_3   0.500010 0.500010 0.500010 -0.265865
O6    O     O_R   0.170070 0.978950 0.027680 -0.508752
O7    O     O_R   0.001760 0.175230 0.026640 -0.490315
O8    O     O_R   0.984760 0.333570 0.037150 -0.518201
O9    O     O_R   0.183410 0.309240 0.041890 -0.497105
O10   O     O_R   0.340240 0.172500 0.045430 -0.509018
O11   O     O_R   0.309670 0.000990 0.032050 -0.503931
O12   O     O_R   0.480650 0.664000 0.464630 -0.462655
O13   O     O_R   0.168330 0.982130 0.939200 -0.493692
O14   O     O_R   0.000140 0.178170 0.944610 -0.465571
O15   O     O_R   0.983010 0.336750 0.948660 -0.476237
O16   O     O_R   0.181800 0.312190 0.959860 -0.460932
O17   O     O_R   0.338500 0.175680 0.956950 -0.490779
O18   O     O_R   0.308050 0.003930 0.950020 -0.499702
O19   O     O_3   0.164130 0.163270 0.992500 -0.272024
O20   O     O_R   0.323930 0.675950 0.455370 -0.465967
O21   O     O_R   0.354700 0.475360 0.451930 -0.475901
O22   O     O_R   0.494470 0.320860 0.448390 -0.482505
O23   O     O_R   0.662580 0.357570 0.460050 -0.503305
O24   O     O_R   0.680900 0.502040 0.551870 -0.523044
O25   O     O_R   0.481990 0.666040 0.546870 -0.499485
O26   O     O_R   0.325370 0.678160 0.544080 -0.527780
O27   O     O_3   0.757449 0.204768 0.320022 -0.564335
C97   C     C_3   0.678846 0.254238 0.288781 0.027753
H26   H     H_    0.646263 0.200993 0.278244 0.172626
H27   H     H_    0.713597 0.260277 0.261991 0.195615
C98   C     C_3   0.587322 0.360875 0.301349 -0.298557
H28   H     H_    0.553448 0.354155 0.328246 0.200736
H29   H     H_    0.614421 0.419403 0.309390 0.176189
C99   C     C_3   0.503103 0.401154 0.266830 -0.453710
H30   H     H_    0.534738 0.413026 0.240255 0.197424
H31   H     H_    0.437864 0.476582 0.277065 0.147501
H32   H     H_    0.472977 0.345498 0.257525 0.166865
C100  C     C_2   0.874357 0.472915 0.173385 0.584857
O28   O     O_2   0.824422 0.559975 0.160937 -0.525099
O29   O     O_R   0.935411 0.457826 0.209895 -0.694523
H33   H     H_    0.932103 0.524736 0.222904 0.326531
C101  C     C_2   0.867288 0.127844 0.154626 0.605126
O30   O     O_2   0.914469 0.038901 0.139793 -0.482144
O31   O     O_R   0.797953 0.150453 0.184354 -0.684674
H34   H     H_    0.796550 0.086389 0.191882 0.338361
O32   O     O_3   0.194312 0.782039 0.399196 -0.539339
C102  C     C_3   0.113787 0.884235 0.407499 0.035651
H35   H     H_    0.039389 0.881294 0.404378 0.159137
H36   H     H_    0.105509 0.940336 0.385585 0.163913
C103  C     C_3   0.129055 0.923825 0.451021 -0.274391
H37   H     H_    0.134873 0.868460 0.472581 0.190536
H38   H     H_    0.202331 0.928978 0.454587 0.160746
C104  C     C_3   0.038862 0.030886 0.461415 -0.478307
H39   H     H_    0.032572 0.087943 0.440599 0.163472
H40   H     H_    0.052266 0.057492 0.493022 0.160840
H41   H     H_    0.964744 0.027492 0.458924 0.148974
C105  C     C_2   0.543167 0.762726 0.419083 0.598537
O33   O     O_2   0.628412 0.717773 0.404931 -0.536426
O34   O     O_R   0.533013 0.809326 0.458480 -0.710832
H42   H     H_    0.602238 0.797159 0.472603 0.315613
C106  C     C_2   0.468712 0.173504 0.195263 0.526628
O35   O     O_2   0.465975 0.145003 0.228053 -0.552620
O36   O     O_R   0.564542 0.142190 0.179767 -0.711570
H43   H     H_    0.625149 0.097908 0.198844 0.326513
O37   O     O_3   0.183356 0.821016 0.318591 -0.539960
C107  C     C_3   0.183061 0.725654 0.306906 0.016026
H44   H     H_    0.102156 0.739833 0.307859 0.157290
H45   H     H_    0.232608 0.662007 0.327460 0.134188
C108  C     C_3   0.216070 0.690131 0.263427 -0.239134
H46   H     H_    0.168772 0.755034 0.243479 0.243179
H47   H     H_    0.299289 0.668158 0.262586 0.183708
C109  C     C_3   0.201516 0.596990 0.247160 -0.482808
H48   H     H_    0.242713 0.533519 0.268097 0.124367
H49   H     H_    0.234151 0.568110 0.217004 0.206490
H50   H     H_    0.117563 0.619866 0.243658 0.135005
C110  C     C_2   0.203234 0.779309 0.147793 0.593162
O38   O     O_2   0.243585 0.710224 0.171389 -0.546312
O39   O     O_R   0.100532 0.812797 0.132436 -0.654986
H51   H     H_    0.067464 0.775511 0.143783 0.344641
O40   O     O_3   0.501292 0.848289 0.166945 -0.536544
C111  C     C_3   0.542195 0.912200 0.157680 0.031757
H52   H     H_    0.571124 0.936950 0.186845 0.194994
H53   H     H_    0.482881 0.985684 0.144320 0.124351
C112  C     C_3   0.635227 0.849802 0.131508 -0.274959
H54   H     H_    0.696682 0.784250 0.148553 0.220970
H55   H     H_    0.612122 0.816280 0.103223 0.172265
C113  C     C_3   0.679970 0.917202 0.120423 -0.443951
H56   H     H_    0.619463 0.984420 0.103935 0.175026
H57   H     H_    0.745019 0.870501 0.100528 0.172971
H58   H     H_    0.710303 0.945749 0.148208 0.178046
O41   O     O_3   0.205505 0.524748 0.579434 -0.540260
C114  C     C_3   0.168190 0.621372 0.602390 0.022865
H59   H     H_    0.177544 0.675474 0.584668 0.173567
H60   H     H_    0.212173 0.618992 0.632210 0.125774
C115  C     C_3   0.052162 0.665631 0.607746 -0.284055
H61   H     H_    0.009713 0.673829 0.577399 0.181333
H62   H     H_    0.039205 0.611841 0.624225 0.164311
C116  C     C_3   0.007804 0.771535 0.631119 -0.462172
H63   H     H_    0.048885 0.765336 0.661648 0.182672
H64   H     H_    0.924060 0.800819 0.634883 0.153781
H65   H     H_    0.015822 0.827783 0.614169 0.187254
O42   O     O_3   0.513832 0.187198 0.584062 -0.551775
C117  C     C_3   0.479734 0.127970 0.556307 0.023688
H66   H     H_    0.539741 0.086221 0.533900 0.155381
H67   H     H_    0.405890 0.177005 0.538514 0.128644
C118  C     C_3   0.468838 0.047498 0.578087 -0.290469
H68   H     H_    0.541505 0.002336 0.596934 0.177991
H69   H     H_    0.403567 0.087577 0.598318 0.161252
C119  C     C_3   0.447788 0.972838 0.547935 -0.454847
H70   H     H_    0.375386 0.016166 0.528704 0.162746
H71   H     H_    0.438754 0.916745 0.564616 0.160430
H72   H     H_    0.513853 0.928928 0.528340 0.169951
C120  C     C_2   0.100449 0.448543 0.901354 0.595692
O43   O     O_2   0.023075 0.458329 0.880295 -0.514051
O44   O     O_R   0.090198 0.505893 0.938602 -0.664323
H73   H     H_    0.014972 0.550467 0.945257 0.349733
C121  C     C_2   0.483577 0.202381 0.923370 0.629492
O45   O     O_2   0.500373 0.247619 0.954013 -0.481191
O46   O     O_R   0.548346 0.096088 0.915465 -0.638219
H74   H     H_    0.607665 0.065601 0.936949 0.349241
C122  C     C_2   0.508845 0.232489 0.840462 0.619293
O47   O     O_2   0.572901 0.140920 0.842727 -0.451313
O48   O     O_R   0.533211 0.299093 0.822763 -0.655820
H75   H     H_    0.606478 0.262616 0.813420 0.351774
C123  C     C_2   0.966007 0.095066 0.871184 0.636212
O49   O     O_2   0.038827 0.019597 0.855908 -0.554060
O50   O     O_R   0.908241 0.081156 0.898227 -0.650334
H76   H     H_    0.935645 0.005351 0.903176 0.334446
O51   O     O_3   0.976874 0.138479 0.790518 -0.543061
C124  C     C_3   0.084210 0.108347 0.790852 0.036165
H77   H     H_    0.125392 0.024503 0.780968 0.196143
H78   H     H_    0.119662 0.116163 0.821678 0.135816
C125  C     C_3   0.103374 0.168943 0.761204 -0.282472
H79   H     H_    0.067665 0.161114 0.730628 0.197194
H80   H     H_    0.067321 0.252431 0.771753 0.170252
C126  C     C_3   0.219172 0.129559 0.758197 -0.458976
H81   H     H_    0.256371 0.137414 0.788415 0.155007
H82   H     H_    0.229983 0.176086 0.736959 0.181647
H83   H     H_    0.257492 0.046964 0.746489 0.158922
C127  C     C_2   0.749025 0.510972 0.820888 0.629452
O52   O     O_2   0.664257 0.562885 0.835075 -0.464338
O53   O     O_R   0.777333 0.549833 0.790787 -0.693114
H84   H     H_    0.721271 0.621503 0.783359 0.339615
C128  C     C_2   0.797596 0.477187 0.908476 0.654370
O54   O     O_2   0.796361 0.559223 0.904361 -0.455224
O55   O     O_R   0.758838 0.465347 0.942931 -0.669210
H85   H     H_    0.731776 0.530043 0.962094 0.342708
O56   O     O_3   0.542411 0.234350 0.377869 -0.563839
C129  C     C_3   0.581204 0.125272 0.375075 0.018844
H86   H     H_    0.664907 0.088316 0.369358 0.165280
H87   H     H_    0.544016 0.097025 0.349319 0.135636
C130  C     C_3   0.571271 0.089135 0.415060 -0.267337
H88   H     H_    0.614828 0.111467 0.440077 0.179484
H89   H     H_    0.488211 0.127442 0.421942 0.175462
C131  C     C_3   0.614187 0.971663 0.412942 -0.462931
H90   H     H_    0.569412 0.947721 0.389079 0.174506
H91   H     H_    0.607548 0.948186 0.442603 0.164367
H92   H     H_    0.697363 0.931271 0.406181 0.154597
O57   O     O_3   0.261815 0.731965 0.808411 -0.540086
C132  C     C_3   0.157321 0.755188 0.810683 0.014600
H93   H     H_    0.124531 0.750913 0.779183 0.180388
H94   H     H_    0.106056 0.834753 0.823817 0.170977
C133  C     C_3   0.153754 0.673770 0.834364 -0.273031
H95   H     H_    0.200730 0.595319 0.819576 0.213503
H96   H     H_    0.187821 0.675118 0.865811 0.175766
C134  C     C_3   0.042571 0.693500 0.835981 -0.449609
H97   H     H_    0.994246 0.771550 0.850828 0.172582
H98   H     H_    0.042416 0.634239 0.853799 0.191872
H99   H     H_    0.008179 0.688429 0.804865 0.169712
C135  C     C_2   0.157914 0.900111 0.671935 0.543037
O58   O     O_2   0.088163 0.957567 0.648695 -0.545871
O59   O     O_R   0.135464 0.893470 0.710932 -0.716808
H100  H     H_    0.059554 0.939934 0.716226 0.347344
C136  C     C_2   0.177955 0.460025 0.412885 0.625231
O60   O     O_2   0.190879 0.425166 0.446003 -0.516838
O61   O     O_R   0.089033 0.552902 0.403828 -0.693217
H101  H     H_    0.041388 0.583718 0.427005 0.333058
O62   O     O_3   0.119483 0.426495 0.330323 -0.528636
C137  C     C_3   0.076746 0.520837 0.311248 0.034790
H102  H     H_    0.093363 0.503978 0.278740 0.131238
H103  H     H_    0.107876 0.573086 0.325791 0.145804
C138  C     C_3   0.958797 0.577001 0.313758 -0.239247
H104  H     H_    0.925858 0.528963 0.296862 0.194809
H105  H     H_    0.939651 0.587619 0.345909 0.209996
C139  C     C_3   0.908484 0.683326 0.296190 -0.474964
H106  H     H_    0.935215 0.734735 0.314547 0.155134
H107  H     H_    0.822742 0.719727 0.296807 0.177435
H108  H     H_    0.928388 0.675774 0.264315 0.143220

loop_
_geom_bond_atom_site_label_1
_geom_bond_atom_site_label_2
_ccdc_geom_bond_type
Cr4   O14   S    
Cr5   O9    S    
C55   C59   A    
C36   C42   S    
C130  H88   S    
C82   H18   S    
C18   O27   S    
C112  C113  S    
C44   C45   S    
Cr3   O4    S    
C5    C6    A    
Cr5   O16   S    
C83   H17   S    
C12   O22   A    
C40   C43   A    
C112  H54   S    
C139  H106  S    
C117  H67   S    
Cr1   O1    S    
C34   C75   S    
C135  O59   S    
C64   H13   S    
C15   H25   S    
C118  H68   S    
C93   O11   A    
C115  H62   S    
C21   N6    A    
C44   C46   A    
C5    C106  S    
C80   H19   S    
C77   C79   A    
C78   C89   A    
C117  C118  S    
O36   H43   S    
C104  H41   S    
C1    O20   A    
C51   N4    A    
C72   C73   T    
C40   H8    S    
C17   C21   S    
C115  C116  S    
C110  O38   D    
C21   N5    A    
Cr3   O23   S    
Cr1   O25   S    
C1    C29   S    
C69   C74   A    
C135  O58   D    
C35   C105  S    
Cr5   O19   S    
C22   C27   A    
C124  H78   S    
C45   O3    A    
O57   C132  S    
C36   N8    A    
C25   H5    S    
C44   C50   A    
C137  C138  S    
Cr2   O5    S    
C14   C19   A    
C75   C81   A    
C105  O33   D    
C53   C58   A    
C29   C35   A    
N3    N4    A    
O39   H51   S    
C64   C65   A    
C30   C31   A    
C125  C126  S    
C47   H9    S    
C114  C115  S    
C127  O53   S    
C7    H24   S    
C69   C70   A    
Cr6   O10   S    
C48   C52   S    
C106  O36   S    
C138  H104  S    
C118  C119  S    
C92   O10   A    
C20   N7    A    
C102  H35   S    
C129  H87   S    
C120  O43   D    
C77   C135  S    
Cr6   O19   S    
C91   O8    A    
C136  O60   D    
C7    C8    A    
C97   H27   S    
C85   C86   A    
Cr4   O13   S    
C130  H89   S    
C95   O17   A    
C34   O25   A    
C139  H108  S    
C38   C39   A    
C136  O61   S    
C98   H28   S    
C68   C74   A    
C96   O13   A    
O42   C117  S    
C103  H38   S    
C137  H103  S    
C56   O4    A    
C85   O57   S    
C123  O49   D    
C100  O29   S    
C121  O46   S    
C34   O26   A    
C9    C10   S    
C96   O18   A    
C99   H30   S    
C116  H63   S    
C103  H37   S    
C84   C90   A    
C22   C100  S    
C2    C11   S    
C111  H52   S    
C54   C59   A    
C99   H31   S    
C39   H6    S    
C133  H96   S    
C4    O56   S    
C30   O32   S    
C23   O1    A    
C126  H83   S    
C16   C17   A    
C25   C26   A    
C104  H40   S    
Cr1   O5    S    
C5    C9    A    
C29   C30   A    
C19   H2    S    
C31   C32   A    
N2    N12   A    
C7    C13   A    
Cr4   O6    S    
C138  C139  S    
C62   C63   A    
C17   C18   A    
C32   C37   S    
C31   O37   S    
Cr2   O21   S    
C100  O28   D    
C3    C4    A    
Cr6   O17   S    
C68   C123  S    
Cr5   O8    S    
C24   C28   A    
C122  O47   D    
C112  H55   S    
C90   C96   S    
O48   H75   S    
O46   H74   S    
C71   C72   S    
C119  H70   S    
C57   C58   A    
Cr5   O15   S    
C94   O14   A    
C33   C35   A    
C28   C91   S    
C61   C62   A    
C132  C133  S    
C10   C11   T    
C109  H48   S    
C109  H50   S    
O37   C107  S    
C125  H80   S    
C49   C50   A    
C116  H65   S    
C128  O54   D    
C54   C120  S    
C14   C15   A    
C111  C112  S    
C51   N12   A    
C87   C88   T    
C92   O9    A    
C41   C42   A    
C74   C94   S    
C126  H81   S    
C38   C110  S    
C50   O42   S    
N8    N9    A    
C101  O30   D    
C25   C28   A    
C26   C27   A    
C52   N2    A    
C131  H90   S    
C99   H32   S    
C18   C19   A    
C89   O62   S    
Cr3   O22   S    
C119  H71   S    
C108  H46   S    
Cr1   O24   S    
C127  O52   D    
C70   C71   A    
C23   O23   A    
C101  O31   S    
O61   H101  S    
C124  H77   S    
C45   O2    A    
C46   O41   S    
C79   C88   S    
C41   O40   S    
C61   H15   S    
Cr3   O5    S    
C84   C85   A    
C131  H92   S    
C105  O34   S    
O40   C111  S    
C86   C87   S    
C63   C73   S    
C53   C54   A    
C70   C127  S    
C56   C60   S    
C60   C61   A    
C2    C89   A    
C132  H93   S    
C129  C130  S    
O55   H85   S    
C66   C71   A    
C56   O24   A    
C117  H66   S    
Cr1   O12   S    
C37   N9    A    
C114  H60   S    
C51   C58   S    
C6    H1    S    
C12   O21   A    
Cr6   O11   S    
C49   H10   S    
C48   C49   A    
C118  H69   S    
C13   C92   S    
N6    N7    A    
C22   C24   A    
C115  H61   S    
C102  H36   S    
C97   H26   S    
C66   O51   S    
C53   H12   S    
C120  O44   S    
C46   C47   A    
C38   C42   A    
C20   C27   S    
C81   H20   S    
C32   C33   A    
C102  C103  S    
C82   C86   A    
C129  H86   S    
O32   C102  S    
C98   H29   S    
C108  C109  S    
C43   C93   S    
C1    O12   A    
O41   C114  S    
C62   H16   S    
O29   H33   S    
C26   C101  S    
Cr4   O19   S    
C8    H23   S    
O51   C124  S    
C123  O50   S    
C82   C83   A    
C124  C125  S    
C36   N11   A    
C98   C99   S    
C66   C68   A    
O59   H100  S    
C128  O55   S    
Cr3   O3    S    
C75   C76   A    
C111  H53   S    
C107  H44   S    
C133  C134  S    
O44   H73   S    
C134  H97   S    
C126  H82   S    
C20   N1    A    
C110  O39   S    
C15   C16   A    
C55   C121  S    
O56   C129  S    
Cr4   O7    S    
C8    C9    A    
C138  H105  S    
C93   O6    A    
O34   H42   S    
C119  H72   S    
C16   H4    S    
C78   C136  S    
C37   N10   A    
C67   C78   A    
C59   C95   S    
N1    N5    A    
Cr6   O18   S    
C97   C98   S    
C12   C67   S    
C130  C131  S    
C76   C77   A    
C122  O48   S    
C3    H11   S    
C106  O35   D    
C39   C43   A    
C134  H98   S    
O53   H84   S    
C63   C64   A    
C14   C23   S    
C103  C104  S    
O31   H34   S    
C137  H102  S    
C47   C48   A    
C94   O15   A    
C134  H99   S    
C121  O45   D    
C132  H94   S    
C139  H107  S    
C40   C41   A    
C109  H49   S    
C113  H56   S    
C113  H57   S    
C116  H64   S    
Cr2   O2    S    
O27   C97   S    
C65   H14   S    
C33   H7    S    
C125  H79   S    
C107  C108  S    
C83   C90   A    
C133  H95   S    
C76   H21   S    
C80   C81   A    
C60   C65   A    
C4    C67   A    
C84   H22   S    
C113  H58   S    
N10   N11   A    
C57   C122  S    
C52   N3    A    
C104  H39   S    
C55   C57   A    
C2    C3    A    
C6    C13   A    
C131  H91   S    
C69   C128  S    
C95   O16   A    
O62   C137  S    
Cr2   O26   S    
O50   H76   S    
C79   C80   A    
Cr2   O20   S    
C108  H47   S    
C114  H59   S    
C24   H3    S    
C107  H45   S    
C91   O7    A    
