data_mof_unit_pretest_1990.cif
_audit_creation_date              2013-03-05T16:52:22-0500
_audit_creation_method            fapswitch 2.2
_symmetry_space_group_name_H-M    P1
_symmetry_Int_Tables_number       1
_space_group_crystal_system       triclinic
_cell_length_a                    15.849164
_cell_length_b                    15.059689
_cell_length_c                    27.757067
_cell_angle_alpha                 89.937563
_cell_angle_beta                  89.970696
_cell_angle_gamma                 89.99863
_cell_volume                      6625.14856492

loop_
_atom_site_label
_atom_site_type_symbol
_atom_site_description
_atom_site_fract_x
_atom_site_fract_y
_atom_site_fract_z
_atom_type_partial_charge
O1    O     O_R   0.378020 0.573650 0.500020 -0.608071
O2    O     O_R   0.621980 0.426350 0.499980 -0.608153
O3    O     O_R   0.621980 0.573650 0.499980 -0.608323
O4    O     O_R   0.378020 0.426350 0.500020 -0.608243
C1    C     C_R   0.338848 0.500001 0.500029 0.917650
C2    C     C_R   0.661152 0.499999 0.499971 0.917520
O5    O     O_R   0.500010 0.573660 0.428760 -0.617106
O6    O     O_R   0.499990 0.426340 0.571240 -0.617096
O7    O     O_R   0.499990 0.573660 0.571240 -0.619972
O8    O     O_R   0.500010 0.426340 0.428760 -0.620010
C3    C     C_R   0.500011 0.500058 0.405759 0.890192
C4    C     C_R   0.499983 0.499942 0.594240 0.890173
Zn1   Zn    Zn3+2 0.500000 0.598370 0.500000 0.989871
Zn2   Zn    Zn3+2 0.500000 0.401630 0.500000 0.989856
C5    C     C_R   0.425028 0.495936 0.177699 0.536284
C6    C     C_R   0.575249 0.493325 0.822276 0.538206
O9    O     O_2   0.352106 0.492511 0.202793 -0.544467
O10   O     O_2   0.647910 0.486372 0.797154 -0.543547
N1    N     N_R   0.500209 0.499859 0.201525 -0.351355
N2    N     N_R   0.500217 0.500147 0.798476 -0.351329
C7    C     C_R   0.575468 0.502800 0.177687 0.537740
C8    C     C_R   0.425314 0.507993 0.822344 0.535725
C9    C     C_R   0.498596 0.581581 0.277777 0.212359
C10   C     C_R   0.496869 0.418471 0.722221 0.212514
C11   C     C_R   0.498595 0.581086 0.327875 -0.233746
C12   C     C_R   0.496921 0.418966 0.672123 -0.233864
C13   C     C_R   0.501455 0.419772 0.327741 -0.203567
C14   C     C_R   0.502996 0.580180 0.672254 -0.203605
C15   C     C_R   0.501521 0.420169 0.277725 -0.138462
C16   C     C_R   0.503083 0.579781 0.722270 -0.138307
C17   C     C_R   0.500123 0.500755 0.252778 0.275471
C18   C     C_R   0.500081 0.499245 0.747221 0.275210
C19   C     C_R   0.500305 0.499404 0.101737 -0.049021
C20   C     C_R   0.500337 0.500651 0.898265 -0.049039
C21   C     C_R   0.423603 0.495878 0.127327 -0.024389
C22   C     C_R   0.576758 0.493346 0.872648 -0.024673
C23   C     C_R   0.347451 0.491963 0.102289 -0.126257
C24   C     C_R   0.652663 0.485415 0.897657 -0.125413
C25   C     C_R   0.576976 0.502680 0.127314 -0.024769
C26   C     C_R   0.423899 0.508193 0.872717 -0.024491
C27   C     C_R   0.500025 0.500275 0.353132 -0.078894
C28   C     C_R   0.499981 0.499725 0.646865 -0.078879
H1    H     H_    0.502580 0.356634 0.346450 0.170718
H2    H     H_    0.505408 0.643276 0.653542 0.170640
H3    H     H_    0.502671 0.357939 0.258218 0.148698
H4    H     H_    0.505508 0.641973 0.741773 0.148780
H5    H     H_    0.287769 0.487650 0.121213 0.192584
H6    H     H_    0.712060 0.478193 0.878707 0.192878
C29   C     C_R   0.422478 0.504659 0.974540 0.046086
C30   C     C_R   0.578328 0.500124 0.025475 0.045400
C31   C     C_R   0.578226 0.495824 0.974487 0.045374
C32   C     C_R   0.422355 0.499544 0.025505 0.046080
C33   C     C_R   0.500350 0.500394 0.949306 0.075286
C34   C     C_R   0.500331 0.499675 0.050697 0.075284
C35   C     C_R   0.347162 0.514701 0.947723 -0.205480
C36   C     C_R   0.654015 0.505606 0.052334 -0.205966
C37   C     C_R   0.348031 0.516152 0.897796 -0.126337
C38   C     C_R   0.653164 0.506596 0.102264 -0.125514
O11   O     O_2   0.352634 0.515147 0.797291 -0.544497
O12   O     O_2   0.648360 0.506027 0.202771 -0.543535
C39   C     C_R   0.346654 0.493498 0.052363 -0.205501
C40   C     C_R   0.653557 0.486347 0.947587 -0.206018
H7    H     H_    0.494390 0.356279 0.653098 0.182562
H8    H     H_    0.497394 0.643819 0.346899 0.182527
H9    H     H_    0.288629 0.523608 0.878903 0.192578
H10   H     H_    0.712830 0.510669 0.121182 0.192839
H11   H     H_    0.286203 0.523562 0.964156 0.146130
H12   H     H_    0.715360 0.511218 0.035946 0.146022
H13   H     H_    0.285348 0.487894 0.035962 0.146102
H14   H     H_    0.714557 0.477491 0.963941 0.146062
H15   H     H_    0.077643 0.642416 0.508709 0.148715
H16   H     H_    0.922357 0.357583 0.491299 0.148640
H17   H     H_    0.922324 0.642418 0.508678 0.148566
H18   H     H_    0.077676 0.357581 0.491330 0.148642
C41   C     C_R   0.956246 0.580319 0.504895 -0.170785
C42   C     C_R   0.043754 0.419680 0.495113 -0.170667
C43   C     C_R   0.043735 0.580318 0.504913 -0.170562
C44   C     C_R   0.956265 0.419681 0.495094 -0.170672
C45   C     C_R   0.913152 0.500000 0.499985 0.166326
C46   C     C_R   0.086848 0.499999 0.500023 0.166287
C47   C     C_1   0.824376 0.500000 0.499972 -0.059353
C48   C     C_1   0.175623 0.500000 0.500032 -0.059172
C49   C     C_1   0.250458 0.500003 0.500034 -0.167237
C50   C     C_1   0.749542 0.499997 0.499968 -0.167490
H19   H     H_    0.473122 0.082090 0.423969 0.139756
H20   H     H_    0.526875 0.917910 0.576030 0.139618
H21   H     H_    0.526870 0.081783 0.576032 0.144334
H22   H     H_    0.473127 0.918217 0.423968 0.144330
C51   C     C_R   0.484934 0.953193 0.457371 -0.151395
C52   C     C_R   0.515063 0.046807 0.542629 -0.151385
C53   C     C_R   0.515065 0.953021 0.542628 -0.156071
C54   C     C_R   0.484932 0.046979 0.457372 -0.156123
C55   C     C_R   0.500000 0.905045 0.499999 0.074462
C56   C     C_R   0.499997 0.094955 0.500001 0.074410
C57   C     C_1   0.500000 0.807194 0.499999 0.051681
C58   C     C_1   0.499998 0.192806 0.500001 0.051664
N3    N     N_1   0.500000 0.270550 0.500000 -0.088074
N4    N     N_1   0.500000 0.729450 0.500000 -0.088073
I1    I     I_    0.491383 0.295019 0.758752 -0.306809
I2    I     I_    0.496030 0.705124 0.241236 -0.307067

loop_
_geom_bond_atom_site_label_1
_geom_bond_atom_site_label_2
_geom_bond_distance
_ccdc_geom_bond_type
C13   C15   1.388309 A    
C10   I1    2.118497 S    
O3    C2    1.271090 A    
N1    C17   1.422714 S    
C57   N4    1.170802 T    
C5    N1    1.364390 A    
C19   C25   1.408574 A    
H18   C42   1.083881 S    
O1    C1    1.271079 A    
C21   C23   1.394329 A    
C42   C44   1.386633 A    
C32   C39   1.415105 A    
C1    C49   1.400900 S    
C40   H14   1.076502 S    
Zn1   N4    1.974026 S    
O7    Zn1   2.011722 S    
C4    C28   1.460716 S    
C38   H10   1.083662 S    
H16   C44   1.083873 S    
C23   H5    1.083658 S    
C24   H6    1.083668 S    
O3    Zn1   1.968787 S    
O6    C4    1.279733 A    
C9    I2    2.118456 S    
C55   C57   1.473604 S    
O4    Zn2   1.968790 S    
H17   C41   1.083883 S    
O2    C2    1.271080 A    
C31   C40   1.415159 A    
C5    C21   1.398357 A    
H19   C54   1.083213 S    
C32   C34   1.420291 A    
C52   C56   1.407558 A    
C2    C50   1.400900 S    
C7    O12   1.350090 S    
C46   C48   1.407013 S    
O8    Zn2   2.011728 S    
C11   C27   1.404003 A    
C8    O11   1.350104 S    
C45   C47   1.407015 S    
C44   C45   1.395941 A    
C36   H12   1.076488 S    
C25   C38   1.394314 A    
C14   H2    1.083060 S    
C30   C36   1.415160 A    
C15   H3    1.082998 S    
C31   C33   1.420369 A    
C11   H8    1.082960 S    
C9    C17   1.401965 A    
O5    C3    1.279741 A    
C12   H7    1.082965 S    
C10   C18   1.402026 A    
C53   C55   1.407567 A    
C13   C27   1.403177 A    
C23   C39   1.386028 A    
C7    C25   1.398380 A    
C6    N2    1.364488 A    
C29   C32   1.416642 A    
C8    C26   1.398365 A    
C58   N3    1.170803 T    
C54   C56   1.407570 A    
C30   C31   1.416833 A    
C30   C34   1.420367 A    
C51   C54   1.412385 A    
C56   C58   1.473603 S    
C41   C43   1.386631 A    
N2    C8    1.364388 A    
C35   C37   1.386029 A    
C20   C26   1.408613 A    
O1    Zn1   1.968808 S    
C22   C24   1.394320 A    
H15   C43   1.083874 S    
C47   C50   1.186068 T    
C12   C28   1.403979 A    
Zn2   N3    1.974026 S    
N2    C18   1.422779 S    
C43   C46   1.395942 A    
C39   H13   1.076564 S    
C19   C34   1.416725 A    
C5    O9    1.350084 S    
O6    Zn2   2.012519 S    
C26   C37   1.394327 A    
N1    C7    1.364435 A    
C16   H4    1.082999 S    
C42   C46   1.395929 A    
C37   H9    1.083671 S    
O4    C1    1.271090 A    
C35   H11   1.076572 S    
H20   C53   1.083215 S    
C14   C16   1.388300 A    
C15   C17   1.396766 A    
C29   C35   1.415104 A    
C6    C22   1.398374 A    
C16   C18   1.396802 A    
C10   C12   1.390588 A    
C52   C53   1.412384 A    
C29   C33   1.420284 A    
C14   C28   1.403151 A    
C19   C21   1.408615 A    
C36   C38   1.386065 A    
C3    C27   1.460755 S    
C20   C22   1.408556 A    
C9    C11   1.390583 A    
C51   C55   1.407559 A    
O2    Zn2   1.968805 S    
O7    C4    1.280050 A    
O8    C3    1.280061 A    
C13   H1    1.083056 S    
O5    Zn1   2.012525 S    
H22   C51   1.083223 S    
C20   C33   1.416736 A    
C6    O10   1.350100 S    
C48   C49   1.186067 T    
H21   C52   1.083222 S    
C41   C45   1.395929 A    
C24   C40   1.386063 A    
