data_mof_unit_pretest_1263.cif
_audit_creation_date              2012-12-10T16:59:13-0500
_audit_creation_method            fapswitch 2.2
_symmetry_space_group_name_H-M    P1
_symmetry_Int_Tables_number       1
_space_group_crystal_system       triclinic
_cell_length_a                    7.725513
_cell_length_b                    8.543292
_cell_length_c                    27.334765
_cell_angle_alpha                 90.728879
_cell_angle_beta                  86.199894
_cell_angle_gamma                 93.909812
_cell_volume                      1795.91310151

loop_
_atom_site_label
_atom_site_type_symbol
_atom_type_description
_atom_site_fract_x
_atom_site_fract_y
_atom_site_fract_z
_atom_type_partial_charge
C1    C     C_R   0.546128 0.794955 0.498796 0.977510
C2    C     C_R   0.594803 0.564116 0.117013 -0.110109
C3    C     C_R   0.507947 0.457623 0.645975 -0.151050
C4    C     C_R   0.491662 0.493898 0.352301 -0.152000
C5    C     C_R   0.667436 0.507745 0.015609 -0.003213
C6    C     C_R   0.536584 0.221337 0.972007 -0.003271
C7    C     C_R   0.514079 0.245368 0.023861 0.065285
C8    C     C_R   0.708318 0.473813 0.965544 0.068062
C9    C     C_R   0.579366 0.388890 0.045198 -0.015643
C10   C     C_R   0.624690 0.342067 0.943210 -0.025702
C11   C     C_R   0.701505 0.660254 0.035858 0.368407
C12   C     C_R   0.453887 0.205054 0.501338 0.962848
C13   C     C_R   0.482445 0.079400 0.947631 0.412332
C14   C     C_R   0.668259 0.687425 0.086633 0.132873
C15   C     C_R   0.465922 0.079038 0.896290 0.109623
C16   C     C_R   0.502630 0.497092 0.594246 0.875788
C17   C     C_R   0.496729 0.497534 0.405742 0.878479
C18   C     C_R   0.835298 0.564786 0.937070 -0.249904
C19   C     C_R   0.414228 0.137732 0.054799 -0.300788
C20   C     C_2   0.570460 0.958576 0.498185 -0.382842
C21   C     C_2   0.429583 0.041459 0.502195 -0.381462
C22   C     C_R   0.705296 0.453707 0.812795 0.542245
C23   C     C_R   0.628924 0.333056 0.891555 -0.169793
C24   C     C_R   0.476275 0.313722 0.177779 0.538023
C25   C     C_R   0.502792 0.229663 0.818302 0.522785
C26   C     C_R   0.556356 0.585878 0.167767 0.575721
C27   C     C_R   0.635926 0.294374 0.704533 0.261096
C28   C     C_R   0.648445 0.546341 0.273240 0.279922
C29   C     C_R   0.611439 0.334657 0.656476 -0.257950
C30   C     C_R   0.638731 0.556112 0.324447 -0.292577
C31   C     C_R   0.421178 0.538777 0.684634 0.178548
C32   C     C_R   0.347317 0.425730 0.328612 0.193997
C33   C     C_R   0.441284 0.494000 0.732840 -0.151217
C34   C     C_R   0.551899 0.415134 0.096284 -0.186049
C35   C     C_R   0.352584 0.426155 0.277494 -0.144556
C36   C     C_R   0.549368 0.374752 0.742865 0.193917
C37   C     C_R   0.503446 0.480144 0.249669 0.167890
C38   C     C_3   0.404311 0.820414 0.688686 -0.697549
C39   C     C_3   0.039220 0.403610 0.354396 -0.757096
C40   C     C_3   0.918533 0.720841 0.262250 -0.703513
C41   C     C_3   0.932601 0.218885 0.702622 -0.719913
C42   C     C_3   0.882839 0.864298 0.122778 -0.678561
C43   C     C_3   0.518823 0.842173 0.848979 -0.656519
C44   C     C_R   0.728027 0.448471 0.863096 -0.048568
C45   C     C_R   0.478913 0.292243 0.126785 -0.036740
C46   C     C_R   0.844375 0.555613 0.885916 0.452840
C47   C     C_R   0.406813 0.153736 0.105795 0.449086
C48   C     C_R   0.529606 0.212293 0.868477 -0.078122
H1    H     H_    0.013598 0.380572 0.464062 0.192640
H2    H     H_    0.296761 0.989830 0.506032 0.179621
H3    H     H_    0.262953 0.669521 0.643770 0.245451
H4    H     H_    0.314182 0.913741 0.683383 0.243286
H5    H     H_    0.524368 0.844708 0.664523 0.227577
H6    H     H_    0.437521 0.824070 0.727630 0.266755
H7    H     H_    0.232847 0.291732 0.387719 0.229530
H8    H     H_    0.939944 0.325472 0.374976 0.242963
H9    H     H_    0.043614 0.521528 0.372076 0.243205
H10   H     H_    0.999461 0.411595 0.316307 0.242532
H11   H     H_    0.032645 0.720219 0.880088 0.324064
H12   H     H_    0.986406 0.618619 0.536266 0.193778
H13   H     H_    0.286579 0.946450 0.115039 0.326737
H14   H     H_    0.866091 0.502952 0.226913 0.209792
H15   H     H_    0.012590 0.761620 0.231883 0.254976
H16   H     H_    0.993498 0.681694 0.292523 0.217871
H17   H     H_    0.841636 0.820933 0.274669 0.268629
H18   H     H_    0.726948 0.120307 0.747083 0.244201
H19   H     H_    0.010272 0.117373 0.709180 0.250260
H20   H     H_    0.976113 0.318090 0.726559 0.269763
H21   H     H_    0.957101 0.252941 0.663569 0.238408
H22   H     H_    0.666987 0.931708 0.088217 0.246678
H23   H     H_    0.377946 0.556308 0.763006 0.165489
H24   H     H_    0.896652 0.978775 0.142302 0.262789
H25   H     H_    0.978904 0.865421 0.090699 0.190492
H26   H     H_    0.911046 0.770305 0.148185 0.256945
H27   H     H_    0.281279 0.950906 0.856249 0.284102
H28   H     H_    0.451194 0.730272 0.837469 0.224854
H29   H     H_    0.619252 0.814568 0.874217 0.257061
H30   H     H_    0.583088 0.901438 0.816035 0.259960
H31   H     H_    0.815727 0.868185 0.021608 0.337521
H32   H     H_    0.427046 0.850669 0.952605 0.368495
H33   H     H_    0.242694 0.374080 0.259016 0.174968
H34   H     H_    0.748472 0.607306 0.343051 0.180507
H35   H     H_    0.676175 0.270335 0.626950 0.175927
H36   H     H_    0.929637 0.642736 0.954303 0.182435
H37   H     H_    0.333516 0.042731 0.040633 0.206198
H38   H     H_    0.703285 0.010213 0.494372 0.178826
N1    N     N_R   0.587543 0.350689 0.792458 -0.358640
N2    N     N_2   0.394141 0.940368 0.873615 -0.329065
N3    N     N_R   0.511880 0.459605 0.197245 -0.369341
N4    N     N_2   0.950320 0.457960 0.486880 -0.177629
N5    N     N_2   0.049680 0.542040 0.513120 -0.173332
N6    N     N_2   0.321323 0.669210 0.676485 -0.304432
N7    N     N_2   0.207048 0.338765 0.354676 -0.297145
N8    N     N_2   0.805196 0.592884 0.244932 -0.301210
N9    N     N_2   0.750026 0.175322 0.713745 -0.314381
N10   N     N_2   0.707717 0.838953 0.107150 -0.244367
O1    O     O_R   0.389250 0.738570 0.503220 -0.610626
O2    O     O_2   0.440988 0.189730 0.207778 -0.469377
O3    O     O_2   0.562095 0.731118 0.187834 -0.471721
O4    O     O_2   0.390557 0.130702 0.795443 -0.585938
O5    O     O_3   0.963064 0.651703 0.858109 -0.712298
O6    O     O_3   0.319207 0.039653 0.135268 -0.695246
O7    O     O_3   0.748153 0.784340 0.004592 -0.757733
O8    O     O_3   0.459367 0.941061 0.973802 -0.765293
O9    O     O_R   0.610750 0.261430 0.496780 -0.613568
O10   O     O_R   0.678390 0.711630 0.494810 -0.628643
O11   O     O_R   0.321610 0.288370 0.505190 -0.632931
O12   O     O_R   0.355440 0.513440 0.575450 -0.624827
O13   O     O_R   0.644560 0.486560 0.424550 -0.619227
O14   O     O_R   0.644590 0.486500 0.567040 -0.618760
O15   O     O_R   0.355410 0.513500 0.432960 -0.618962
O16   O     O_2   0.794053 0.564261 0.784444 -0.494314
Zn1   Zn    Zn3+2 0.306940 0.517990 0.505620 0.937150
Zn2   Zn    Zn3+2 0.693060 0.482010 0.494380 0.933999

loop_
_geom_bond_atom_site_label_1
_geom_bond_atom_site_label_2
_ccdc_geom_bond_type
C38   N6    S    
C27   C29   A    
C27   N9    S    
H1    N4    S    
H7    N7    S    
C24   N3    A    
C35   H33   S    
C16   O14   A    
C41   H19   S    
C43   H30   S    
C40   H15   S    
O10   Zn2   S    
C42   N10   S    
C43   N2    S    
C35   C37   A    
C29   H35   S    
C12   O9    A    
C11   C14   A    
C19   C47   A    
C38   H4    S    
C39   H9    S    
C17   O15   A    
C25   N1    A    
C33   C36   A    
C28   N8    S    
C3    C29   A    
O11   Zn1   S    
C39   N7    S    
C1    C20   S    
C20   H38   S    
C18   H36   S    
C31   C33   A    
O14   Zn2   S    
C1    O10   A    
C2    C34   A    
C32   N7    S    
C47   O6    S    
H31   O7    S    
C15   C48   A    
C18   C46   A    
C14   N10   S    
C21   H2    S    
C44   C46   A    
C41   H20   S    
C45   C47   A    
C36   N1    S    
C46   O5    S    
C22   C44   A    
C42   H26   S    
H11   O5    S    
C32   C35   A    
O9    Zn2   S    
C2    C26   A    
C1    O1    A    
C33   H23   S    
C39   H10   S    
C12   C21   S    
C8    C18   A    
C23   C44   A    
N5    Zn1   S    
C26   N3    A    
O12   Zn1   S    
C30   H34   S    
H22   N10   S    
C5    C9    A    
H3    N6    S    
C5    C8    A    
C25   O4    S    
C39   H8    S    
C38   H6    S    
C42   H24   S    
O15   Zn1   S    
C34   C45   A    
C22   N1    A    
C13   O8    S    
C3    C31   A    
C25   C48   A    
C4    C32   A    
O13   Zn2   S    
C4    C17   S    
H32   O8    S    
C22   O16   S    
C40   H17   S    
H14   N8    S    
C9    C34   A    
C10   C23   A    
C24   O2    S    
C24   C45   A    
O1    Zn1   S    
C41   H21   S    
H12   N5    S    
C43   H28   S    
C7    C9    A    
C42   H25   S    
C23   C48   A    
C40   N8    S    
C19   H37   S    
C17   O13   A    
C6    C10   A    
C12   O11   A    
C5    C11   A    
C6    C7    A    
C27   C36   A    
C43   H29   S    
C26   O3    S    
C7    C19   A    
C40   H16   S    
C37   N3    S    
C13   C15   A    
H13   O6    S    
C6    C13   A    
N4    N5    D    
C41   N9    S    
C38   H5    S    
C28   C37   A    
C28   C30   A    
N4    Zn2   S    
C2    C14   A    
C16   O12   A    
H27   N2    S    
C20   C21   D    
C8    C10   A    
C31   N6    S    
C15   N2    S    
C11   O7    S    
C4    C30   A    
C3    C16   S    
H18   N9    S    
