data_mof_unit_pretest_308.cif
_audit_creation_date              2012-12-10T18:11:44-0500
_audit_creation_method            fapswitch 2.2
_symmetry_space_group_name_H-M    P1
_symmetry_Int_Tables_number       1
_space_group_crystal_system       triclinic
_cell_length_a                    10.554429
_cell_length_b                    12.59826
_cell_length_c                    13.170495
_cell_angle_alpha                 82.553031
_cell_angle_beta                  91.254815
_cell_angle_gamma                 103.033925
_cell_volume                      1691.68961214

loop_
_atom_site_label
_atom_site_type_symbol
_atom_type_description
_atom_site_fract_x
_atom_site_fract_y
_atom_site_fract_z
_atom_type_partial_charge
C1    C     C_R   0.471933 0.439564 0.690492 0.963830
C2    C     C_R   0.413735 0.449619 0.969971 -0.086532
C3    C     C_R   0.410764 0.479979 0.863172 -0.189642
C4    C     C_R   0.742201 0.501113 0.500795 1.010689
C5    C     C_R   0.447191 0.534988 0.033291 0.042087
C6    C     C_R   0.457798 0.645892 0.991220 -0.103557
C7    C     C_R   0.419674 0.669006 0.890381 -0.270561
C8    C     C_R   0.393006 0.586879 0.827538 0.689985
C9    C     C_R   0.482606 0.513917 0.134592 -0.210661
C10   C     C_R   0.536635 0.708316 0.154879 0.420153
C11   C     C_R   0.428387 0.403024 0.797413 -0.238889
C12   C     C_3   0.063034 0.579001 0.433244 0.469348
C13   C     C_R   0.310519 0.084717 0.350081 0.356961
C14   C     C_R   0.656379 0.801586 0.628409 -0.069462
C15   C     C_R   0.689331 0.907752 0.656756 0.473058
C16   C     C_R   0.516758 0.561070 0.308061 0.952772
C17   C     C_R   0.623677 0.985918 0.611679 -0.252011
C18   C     C_R   0.530817 0.961163 0.534396 -0.013455
C19   C     C_R   0.504166 0.853236 0.506951 0.199596
C20   C     C_R   0.465583 0.039507 0.482044 -0.039676
C21   C     C_R   0.374344 0.007944 0.404264 -0.052283
C22   C     C_R   0.352021 0.901298 0.378773 -0.255742
C23   C     C_3   0.989568 0.596655 0.526835 0.288333
C24   C     C_R   0.415143 0.825557 0.429577 -0.145737
C25   C     C_R   0.490528 0.149359 0.501355 -0.125274
C26   C     C_R   0.344739 0.194405 0.370492 0.562562
C27   C     C_R   0.257268 0.498036 0.501334 1.025385
C28   C     C_3   0.935803 0.417937 0.570892 0.393019
C29   C     C_3   0.046421 0.511930 0.596422 0.367562
C30   C     C_3   0.121308 0.494719 0.502821 -0.361674
C31   C     C_3   0.009856 0.398976 0.477562 -0.435319
C32   C     C_3   0.950776 0.484838 0.409722 0.567916
C33   C     C_3   0.017858 0.543147 0.762216 -0.193348
C34   C     C_3   0.877113 0.502637 0.502695 -0.363546
C35   C     C_3   0.167002 0.261371 0.308147 -0.081944
C36   C     C_3   0.102407 0.997930 0.311759 -0.315227
C37   C     C_3   0.929297 0.258473 0.680064 -0.228485
C38   C     C_3   0.900393 0.920603 0.707387 -0.361142
C39   C     C_3   0.090037 0.772868 0.551992 -0.247743
C40   C     C_3   0.558064 0.886344 0.198536 -0.169158
C41   C     C_3   0.670087 0.860454 0.961682 -0.246963
C42   C     C_R   0.511072 0.732319 0.048863 0.424374
C43   C     C_R   0.514716 0.596943 0.197398 -0.231290
C44   C     C_R   0.412990 0.291620 0.837539 0.538095
C45   C     C_R   0.385509 0.258400 0.940753 -0.286923
C46   C     C_R   0.386990 0.335766 0.007261 0.570525
F1    F     F_    0.423091 0.214084 0.777408 -0.645718
F2    F     F_    0.351608 0.296650 0.105534 -0.639630
F3    F     F_    0.343574 0.612471 0.734160 -0.628015
F4    F     F_    0.897018 0.472583 0.314084 -0.630721
F5    F     F_    0.131993 0.658492 0.360122 -0.678232
H1    H     H_    0.489634 0.432389 0.165872 0.268533
H2    H     H_    0.923975 0.481263 0.767384 0.173778
H3    H     H_    0.000899 0.627101 0.742100 0.178807
H4    H     H_    0.061922 0.539593 0.839479 0.184949
H5    H     H_    0.141571 0.342625 0.302867 0.186842
H6    H     H_    0.118540 0.209839 0.377761 0.059815
H7    H     H_    0.128665 0.225479 0.238073 0.216701
H8    H     H_    0.086286 0.005559 0.393757 0.119782
H9    H     H_    0.087448 0.909794 0.302430 0.217243
H10   H     H_    0.025525 0.029275 0.266653 0.190740
H11   H     H_    0.025038 0.297098 0.711294 0.186751
H12   H     H_    0.366736 0.171930 0.970201 0.211881
H13   H     H_    0.942514 0.207372 0.620083 0.158128
H14   H     H_    0.872893 0.202675 0.743658 0.203425
H15   H     H_    0.929998 0.959143 0.627944 0.165065
H16   H     H_    0.902426 0.832084 0.717846 0.186608
H17   H     H_    0.973530 0.961587 0.759913 0.205210
H18   H     H_    0.121481 0.804448 0.472046 0.212182
H19   H     H_    0.166736 0.737881 0.594624 0.219977
H20   H     H_    0.078171 0.843933 0.589238 0.148923
H21   H     H_    0.452302 0.873702 0.181466 0.174140
H22   H     H_    0.576948 0.926824 0.268824 0.173472
H23   H     H_    0.288593 0.875857 0.316678 0.227071
H24   H     H_    0.617447 0.944701 0.138186 0.201242
H25   H     H_    0.696025 0.946640 0.924286 0.232478
H26   H     H_    0.678682 0.805935 0.903342 0.190779
H27   H     H_    0.741152 0.851774 0.024222 0.171175
H28   H     H_    0.557093 0.180595 0.559158 0.202048
H29   H     H_    0.701174 0.737801 0.665658 0.154403
H30   H     H_    0.649076 0.065373 0.638141 0.187186
H31   H     H_    0.395880 0.746779 0.403591 0.238829
H32   H     H_    0.017893 0.317578 0.459451 0.181012
H33   H     H_    0.413686 0.751506 0.858700 0.216285
N1    N     N_R   0.432930 0.222190 0.444670 -0.177984
N2    N     N_R   0.566370 0.776980 0.554790 -0.139629
O1    O     O_R   0.467970 0.366730 0.627150 -0.567993
O2    O     O_3   0.303598 0.278378 0.309769 -0.533456
O3    O     O_3   0.225460 0.056415 0.271173 -0.573818
O4    O     O_3   0.858290 0.337066 0.641930 -0.601468
O5    O     O_3   0.777394 0.935414 0.733660 -0.637262
O6    O     O_3   0.969603 0.696720 0.553188 -0.599980
O7    O     O_3   0.600698 0.787138 0.215040 -0.607122
O8    O     O_3   0.541822 0.838941 0.000056 -0.631958
O9    O     O_R   0.510820 0.544830 0.662520 -0.596655
O10   O     O_R   0.664630 0.410960 0.482340 -0.588387
O11   O     O_R   0.707470 0.589060 0.517710 -0.600116
O12   O     O_R   0.489180 0.455170 0.337480 -0.574655
O13   O     O_R   0.532030 0.633270 0.372850 -0.604933
O14   O     O_R   0.292530 0.410940 0.482290 -0.628296
O15   O     O_R   0.335370 0.589040 0.517660 -0.590106
O16   O     O_3   0.105352 0.520990 0.692879 -0.556078
Zn1   Zn    Zn3+2 0.471390 0.381080 0.476380 1.034302
Zn2   Zn    Zn3+2 0.528610 0.618920 0.523620 1.012445

loop_
_geom_bond_atom_site_label_1
_geom_bond_atom_site_label_2
_ccdc_geom_bond_type
C36   O3    S    
C33   H4    S    
C1    O1    A    
C10   C42   A    
C1    C11   S    
C40   O7    S    
C19   N2    A    
N2    Zn2   S    
C37   H13   S    
C37   H11   S    
C7    C8    A    
C45   C46   A    
C2    C46   A    
C12   C23   S    
C37   O4    S    
C35   H7    S    
C23   C29   S    
C28   C29   S    
C41   H26   S    
C30   C31   S    
C20   C25   A    
O12   Zn1   S    
C31   H32   S    
C40   H22   S    
C18   C19   A    
C24   H31   S    
C4    O10   A    
C41   O8    S    
C37   H14   S    
C14   H29   S    
C17   H30   S    
N1    Zn1   S    
C44   F1    S    
C13   O3    S    
C36   H8    S    
C7    H33   S    
C10   C43   A    
C28   C34   S    
C25   H28   S    
C4    O11   A    
C12   C32   S    
C27   C30   S    
C9    H1    S    
C46   F2    S    
C33   H2    S    
C4    C34   S    
C27   O14   A    
C9    C43   A    
C33   O16   S    
C38   H15   S    
C14   N2    A    
C3    C8    A    
C41   H27   S    
C10   O7    S    
C38   O5    S    
C27   O15   A    
O14   Zn1   S    
C32   C34   S    
C5    C9    A    
C29   C30   S    
C35   O2    S    
C31   C32   S    
C1    O9    A    
C23   C34   S    
C25   N1    A    
C17   C18   A    
C39   H18   S    
C13   C21   A    
C11   C44   A    
C23   O6    S    
C38   H16   S    
C16   C43   S    
C32   F4    S    
O1    Zn1   S    
C38   H17   S    
O15   Zn2   S    
C22   C24   A    
C13   C26   A    
C2    C5    A    
C22   H23   S    
C36   H10   S    
C39   O6    S    
C12   F5    S    
O9    Zn2   S    
C33   H3    S    
C15   C17   A    
O13   Zn2   S    
C40   H21   S    
C12   C30   S    
C35   H5    S    
C42   O8    S    
C28   C31   S    
C44   C45   A    
C36   H9    S    
C16   O13   A    
C6    C7    A    
C40   H24   S    
C35   H6    S    
C19   C24   A    
C41   H25   S    
C16   O12   A    
C5    C6    A    
C26   N1    A    
C39   H19   S    
C45   H12   S    
C29   O16   S    
C2    C3    A    
C18   C20   A    
O11   Zn2   S    
C3    C11   A    
C15   O5    S    
C20   C21   A    
C26   O2    S    
C6    C42   A    
O10   Zn1   S    
C39   H20   S    
C14   C15   A    
C28   O4    S    
C21   C22   A    
C8    F3    S    
