data_mof_unit_pretest_532.cif
_audit_creation_date              2012-10-26T20:13:55-0400
_audit_creation_method            fapswitch 2.2
_symmetry_space_group_name_H-M    P1
_symmetry_Int_Tables_number       1
_space_group_crystal_system       triclinic
_cell_length_a                    8.715675
_cell_length_b                    10.873219
_cell_length_c                    9.61769
_cell_angle_alpha                 92.164767
_cell_angle_beta                  97.547096
_cell_angle_gamma                 92.079625
_cell_volume                      902.120338145

loop_
_atom_site_label
_atom_site_type_symbol
_atom_type_description
_atom_site_fract_x
_atom_site_fract_y
_atom_site_fract_z
_atom_type_partial_charge
C1    C     C_R   0.497574 0.262980 0.497063 0.545110
C2    C     C_R   0.629857 0.535887 0.943340 0.148849
C3    C     C_3   0.721648 0.652544 0.942584 -0.094368
C4    C     C_R   0.204182 0.497830 0.464098 0.558189
C5    C     C_3   0.704033 0.670996 0.099854 0.002040
C6    C     C_R   0.499859 0.737903 0.502317 0.557634
C7    C     C_R   0.795791 0.499740 0.535858 0.535281
C8    C     C_2   0.038254 0.492351 0.444540 -0.141650
C9    C     C_2   0.961742 0.500992 0.555517 -0.149470
C10   C     C_R   0.592797 0.073659 0.598047 -0.014651
C11   C     C_R   0.504291 0.130761 0.491308 0.020920
C12   C     C_R   0.420334 0.929125 0.386659 -0.078023
C13   C     C_R   0.424488 0.057744 0.379658 -0.111094
C14   C     C_2   0.258733 0.363622 0.826072 0.243905
C15   C     C_2   0.881487 0.628062 0.905455 0.316050
C16   C     C_2   0.849582 0.687092 0.205465 0.332110
C17   C     C_2   0.591464 0.769672 0.122757 0.227966
C18   C     C_2   0.484709 0.918891 0.841084 0.233493
C19   C     C_2   0.774429 0.922711 0.826538 0.197118
C20   C     C_R   0.497731 0.872179 0.504054 0.054256
C21   C     C_R   0.590803 0.947644 0.606112 -0.007917
C22   C     C_3   0.616910 0.961856 0.765103 0.001500
C23   C     C_3   0.618418 0.101114 0.751393 -0.221603
C24   C     C_R   0.627396 0.542878 0.089844 0.095606
C25   C     C_R   0.383067 0.443907 0.059736 0.053015
C26   C     C_R   0.382910 0.440915 0.911175 0.118602
Cu1   Cu    Cu3+1 0.499990 0.499980 0.640670 0.978409
Cu2   Cu    Cu3+1 0.500010 0.500020 0.359330 0.974552
H1    H     H_    0.978856 0.480863 0.337979 0.153998
H2    H     H_    0.481133 0.953107 0.947829 0.159358
H3    H     H_    0.847593 0.876359 0.760005 0.098148
H4    H     H_    0.518696 0.146557 0.790003 0.135360
H5    H     H_    0.732229 0.150543 0.784353 0.184791
H6    H     H_    0.289814 0.398569 0.104768 0.182747
H7    H     H_    0.021368 0.510895 0.662066 0.179136
H8    H     H_    0.273789 0.323396 0.725189 0.156645
H9    H     H_    0.935886 0.690429 0.839778 0.108400
H10   H     H_    0.657278 0.715618 0.871581 0.114888
H11   H     H_    0.841010 0.677521 0.315513 0.118065
H12   H     H_    0.468450 0.753073 0.088363 0.129097
H13   H     H_    0.359124 0.099679 0.291441 0.143381
H14   H     H_    0.353311 0.874333 0.301895 0.163488
N1    N     N_R   0.500980 0.500930 0.148050 -0.284932
N2    N     N_R   0.500990 0.500890 0.852140 -0.276749
O1    O     O_R   0.500000 0.319640 0.618810 -0.539533
O2    O     O_2   0.952012 0.539389 0.949627 -0.441827
O3    O     O_2   0.973554 0.723025 0.172441 -0.459415
O4    O     O_2   0.637398 0.870264 0.176163 -0.483109
O5    O     O_2   0.378843 0.850768 0.783921 -0.497549
O6    O     O_2   0.823363 0.946586 0.949812 -0.437673
O7    O     O_R   0.500020 0.319680 0.381230 -0.494393
O8    O     O_R   0.274830 0.499980 0.591380 -0.517600
O9    O     O_R   0.274850 0.500020 0.353800 -0.485309
O10   O     O_R   0.499980 0.680320 0.618770 -0.468653
O11   O     O_R   0.500000 0.680360 0.381190 -0.513995
O12   O     O_R   0.725150 0.499980 0.646200 -0.489754
O13   O     O_R   0.725170 0.500020 0.408620 -0.521586
O14   O     O_2   0.137150 0.338948 0.871118 -0.491260

loop_
_geom_bond_atom_site_label_1
_geom_bond_atom_site_label_2
_ccdc_geom_bond_type
Cu2   O9    S    
C18   H2    S    
C10   C23   S    
C6    C20   S    
C25   H6    S    
Cu2   N1    S    
C1    C11   S    
C17   O4    D    
C6    O11   A    
C4    C8    S    
C19   H3    S    
C23   H4    S    
C25   N1    A    
C13   H13   S    
C2    C3    S    
C25   C26   A    
Cu1   O10   S    
C26   N2    A    
C18   C22   S    
Cu2   O13   S    
Cu1   O8    S    
C2    C24   A    
C1    O7    A    
C19   O6    D    
C1    O1    A    
C5    C24   S    
C12   C20   A    
C4    O8    A    
C8    H1    S    
C7    O12   A    
C16   O3    D    
Cu2   O11   S    
C6    O10   A    
C22   C23   S    
C10   C21   A    
C14   H8    S    
C14   O14   D    
Cu2   O7    S    
C4    O9    A    
C5    C17   S    
Cu1   O1    S    
C16   H11   S    
C11   C13   A    
C19   C22   S    
C3    C15   S    
C12   C13   A    
C3    H10   S    
C9    H7    S    
C10   C11   A    
Cu1   Cu2   S    
C7    C9    S    
C24   N1    A    
Cu1   O12   S    
C15   H9    S    
C5    C16   S    
C12   H14   S    
C15   O2    D    
C23   H5    S    
C20   C21   A    
C21   C22   S    
Cu1   N2    S    
C7    O13   A    
C14   C26   S    
C18   O5    D    
C2    N2    A    
C8    C9    D    
C3    C5    S    
C17   H12   S    
