data_mof_unit_pretest_1089.cif
_audit_creation_date              2012-12-11T15:54:55-0500
_audit_creation_method            fapswitch 2.2
_symmetry_space_group_name_H-M    P1
_symmetry_Int_Tables_number       1
_space_group_crystal_system       triclinic
_cell_length_a                    17.665979
_cell_length_b                    24.345216
_cell_length_c                    15.105484
_cell_angle_alpha                 89.990287
_cell_angle_beta                  125.733973
_cell_angle_gamma                 89.720718
_cell_volume                      5273.43229213

loop_
_atom_site_label
_atom_site_type_symbol
_atom_type_description
_atom_site_fract_x
_atom_site_fract_y
_atom_site_fract_z
_atom_type_partial_charge
C1    C     C_R   0.906629 0.868926 0.090313 -0.143612
C2    C     C_R   0.143680 0.846141 0.087602 -0.163734
C3    C     C_R   0.317404 0.643126 0.998307 -0.006656
C4    C     C_R   0.691172 0.001844 0.642699 -0.009254
C5    C     C_R   0.191171 0.501844 0.642701 -0.009254
C6    C     C_R   0.979541 0.000419 0.304253 -0.011165
C7    C     C_R   0.479543 0.500419 0.304254 -0.011165
C8    C     C_R   0.255443 0.955234 0.305710 0.197428
C9    C     C_R   0.251195 0.046823 0.304269 0.153795
C10   C     C_R   0.755443 0.455234 0.305711 0.197429
C11   C     C_R   0.751195 0.546823 0.304269 0.153797
C12   C     C_R   0.953507 0.046097 0.698077 -0.144206
C13   C     C_R   0.652718 0.650673 0.090030 -0.166371
C14   C     C_R   0.953758 0.954182 0.698077 -0.142997
C15   C     C_R   0.453507 0.546097 0.698077 -0.144206
C16   C     C_R   0.453758 0.454182 0.698077 -0.142997
C17   C     C_3   0.271660 0.897143 0.348890 -0.380964
C18   C     C_3   0.190769 0.875312 0.348442 -0.927498
C19   C     C_3   0.238539 0.099381 0.348193 -0.341077
C20   C     C_3   0.242987 0.090667 0.451400 -0.944790
C21   C     C_3   0.771659 0.397143 0.348891 -0.380967
C22   C     C_3   0.690768 0.375312 0.348440 -0.927497
C23   C     C_3   0.738539 0.599382 0.348192 -0.341077
C24   C     C_R   0.643680 0.346141 0.087601 -0.163732
C25   C     C_3   0.742987 0.590669 0.451398 -0.944790
C26   C     C_R   0.305032 0.001708 0.365335 -0.088919
C27   C     C_R   0.805032 0.501708 0.365335 -0.088923
C28   C     C_R   0.938868 0.000243 0.636581 -0.005267
C29   C     C_R   0.438868 0.500243 0.636580 -0.005267
C30   C     C_R   0.113893 0.815787 0.995831 -0.014593
C31   C     C_R   0.123556 0.180949 0.997872 0.002833
C32   C     C_R   0.613892 0.315787 0.995829 -0.014593
C33   C     C_R   0.905824 0.130507 0.090258 -0.136371
C34   C     C_R   0.623559 0.680946 0.997869 0.002838
C35   C     C_3   0.906769 0.052337 0.378184 -0.402517
C36   C     C_3   0.906124 0.949181 0.377628 -0.402972
C37   C     C_3   0.406771 0.552338 0.378186 -0.402518
C38   C     C_3   0.406124 0.449182 0.377628 -0.402970
C39   C     C_3   0.896766 0.052929 0.472254 -0.413946
C40   C     C_3   0.892372 0.949755 0.468761 -0.413113
C41   C     C_3   0.396768 0.552930 0.472255 -0.413946
C42   C     C_3   0.392371 0.449755 0.468760 -0.413113
C43   C     C_3   0.059405 0.999905 0.498554 -0.418010
C44   C     C_R   0.406630 0.368927 0.090314 -0.143610
C45   C     C_3   0.559406 0.499904 0.498556 -0.418011
C46   C     C_3   0.962805 0.000466 0.387474 0.412745
C47   C     C_3   0.462806 0.500466 0.387475 0.412745
C48   C     C_3   0.942469 0.000362 0.543009 0.410635
C49   C     C_3   0.442469 0.500362 0.543009 0.410634
C50   C     C_R   0.812501 0.127144 0.907202 -0.142810
C51   C     C_R   0.813411 0.872446 0.907022 -0.141874
C52   C     C_R   0.312500 0.627144 0.907204 -0.142811
C53   C     C_R   0.313410 0.372447 0.907024 -0.141867
C54   C     C_3   0.047452 0.998519 0.590261 -0.387468
C55   C     C_R   0.405826 0.630507 0.090259 -0.136369
C56   C     C_3   0.547452 0.498518 0.590262 -0.387466
C57   C     C_3   0.656790 0.184390 0.890857 -0.407560
C58   C     C_3   0.661687 0.811999 0.889035 -0.409310
C59   C     C_3   0.156781 0.684378 0.890879 -0.407552
C60   C     C_3   0.161668 0.312022 0.889070 -0.409295
C61   C     C_3   0.098868 0.731086 0.892682 -0.406911
C62   C     C_3   0.107014 0.263538 0.889672 -0.410402
C63   C     C_3   0.598877 0.231099 0.892656 -0.406919
C64   C     C_3   0.607028 0.763523 0.889648 -0.410423
C65   C     C_3   0.303710 0.741238 0.002465 -0.406029
C66   C     C_R   0.056869 0.848642 0.906530 -0.140875
C67   C     C_3   0.311915 0.257509 0.007334 -0.401804
C68   C     C_3   0.803725 0.241238 0.002497 -0.406033
C69   C     C_3   0.811946 0.757508 0.007392 -0.401806
C70   C     C_3   0.752655 0.180501 0.095247 -0.399348
C71   C     C_3   0.753175 0.817981 0.092804 -0.402257
C72   C     C_3   0.252682 0.680510 0.095273 -0.399352
C73   C     C_3   0.253220 0.317967 0.092847 -0.402269
C74   C     C_3   0.758202 0.185905 0.996621 0.407435
C75   C     C_3   0.761934 0.812208 0.996696 0.408619
C76   C     C_3   0.258203 0.685904 0.996626 0.407433
C77   C     C_R   0.060431 0.150376 0.907246 -0.146792
C78   C     C_3   0.261933 0.312212 0.996702 0.408600
C79   C     C_3   0.162359 0.766964 0.995735 0.411783
C80   C     C_3   0.170140 0.229952 0.996904 0.410071
C81   C     C_3   0.662357 0.266964 0.995731 0.411782
C82   C     C_3   0.670142 0.729949 0.996898 0.410070
C83   C     C_3   0.245274 0.788775 0.997213 -0.391997
C84   C     C_3   0.257395 0.209168 0.006303 -0.398759
C85   C     C_3   0.745293 0.288776 0.997253 -0.391996
C86   C     C_3   0.757416 0.709166 0.006338 -0.398774
C87   C     C_3   0.199937 0.730127 0.097745 -0.415020
C88   C     C_R   0.556867 0.348642 0.906529 -0.140875
C89   C     C_3   0.200130 0.268569 0.094111 -0.408253
C90   C     C_3   0.699904 0.230115 0.097717 -0.415015
C91   C     C_3   0.700101 0.768577 0.094080 -0.408269
C92   C     C_3   0.450881 0.963568 0.396479 -0.408811
C93   C     C_3   0.446840 0.061652 0.444314 -0.391735
C94   C     C_3   0.950881 0.463567 0.396481 -0.408810
C95   C     C_3   0.946840 0.561652 0.444313 -0.391733
C96   C     C_R   0.741169 0.955150 0.699219 -0.145210
C97   C     C_R   0.743102 0.046808 0.700395 -0.146980
C98   C     C_R   0.241168 0.455149 0.699220 -0.145209
C99   C     C_R   0.560431 0.650375 0.907244 -0.146789
C100  C     C_R   0.243101 0.546808 0.700396 -0.146979
C101  C     C_3   0.557409 0.964781 0.469585 -0.413926
C102  C     C_3   0.553096 0.061936 0.520250 -0.429140
C103  C     C_3   0.057409 0.464780 0.469587 -0.413927
C104  C     C_3   0.053096 0.561936 0.520248 -0.429144
C105  C     C_3   0.443626 0.987615 0.556932 -0.404825
C106  C     C_3   0.943626 0.487615 0.556932 -0.404823
C107  C     C_3   0.408812 0.003242 0.439595 0.403081
C108  C     C_3   0.908812 0.503242 0.439595 0.403081
C109  C     C_3   0.589959 0.003289 0.566016 0.422727
C110  C     C_R   0.152716 0.150674 0.090032 -0.166362
C111  C     C_3   0.089959 0.503289 0.566017 0.422728
C112  C     C_3   0.549906 0.984060 0.629301 -0.390871
C113  C     C_3   0.049905 0.484061 0.629303 -0.390872
C114  C     C_R   0.003042 0.046205 0.271798 -0.132278
C115  C     C_R   0.001147 0.954228 0.270265 -0.139875
C116  C     C_R   0.503043 0.546205 0.271799 -0.132278
C117  C     C_R   0.501148 0.454228 0.270266 -0.139875
C118  C     C_R   0.818935 0.855837 0.998152 -0.003831
C119  C     C_R   0.817404 0.143127 0.998304 -0.006658
C120  C     C_R   0.318933 0.355839 0.998156 -0.003830
H1    H     H_    0.938769 0.853760 0.171826 0.082805
H2    H     H_    0.816680 0.951197 0.433257 0.153218
H3    H     H_    0.921353 0.519118 0.590478 0.157583
H4    H     H_    0.571190 0.940815 0.657577 0.150368
H5    H     H_    0.577907 0.009863 0.703111 0.155820
H6    H     H_    0.071190 0.440817 0.657581 0.150369
H7    H     H_    0.077905 0.509866 0.703111 0.155820
H8    H     H_    0.012359 0.087547 0.301562 0.088738
H9    H     H_    0.007475 0.912698 0.298018 0.087777
H10   H     H_    0.512360 0.587547 0.301563 0.088739
H11   H     H_    0.507477 0.412699 0.298020 0.087777
H12   H     H_    0.943494 0.088814 0.674279 0.084417
H13   H     H_    0.321777 0.555313 0.439727 0.151411
H14   H     H_    0.944458 0.911540 0.674429 0.083687
H15   H     H_    0.443493 0.588814 0.674279 0.084417
H16   H     H_    0.444458 0.411541 0.674429 0.083687
H17   H     H_    0.016789 0.837671 0.821358 0.083748
H18   H     H_    0.019445 0.162318 0.822389 0.084739
H19   H     H_    0.516783 0.337672 0.821357 0.083749
H20   H     H_    0.519442 0.662316 0.822387 0.084739
H21   H     H_    0.198822 0.163312 0.173837 0.083683
H22   H     H_    0.176104 0.829119 0.167457 0.116232
H23   H     H_    0.698827 0.663313 0.173834 0.083684
H24   H     H_    0.316679 0.451198 0.433256 0.153217
H25   H     H_    0.676109 0.329119 0.167456 0.116228
H26   H     H_    0.942279 0.090797 0.382494 0.142639
H27   H     H_    0.943143 0.910481 0.385425 0.144828
H28   H     H_    0.442282 0.590797 0.382497 0.142641
H29   H     H_    0.443141 0.410481 0.385424 0.144829
H30   H     H_    0.179941 0.901764 0.400084 0.257363
H31   H     H_    0.125863 0.873567 0.264746 0.263809
H32   H     H_    0.207411 0.833039 0.382732 0.238698
H33   H     H_    0.287798 0.870451 0.302898 0.166264
H34   H     H_    0.333521 0.894025 0.433804 0.179652
H35   H     H_    0.931369 0.090580 0.520828 0.146936
H36   H     H_    0.204344 0.053161 0.444479 0.268762
H37   H     H_    0.316095 0.087326 0.523982 0.247786
H38   H     H_    0.210963 0.126497 0.463691 0.242164
H39   H     H_    0.288629 0.131237 0.361132 0.158136
H40   H     H_    0.168116 0.116453 0.285881 0.190363
H41   H     H_    0.679939 0.401763 0.400082 0.257364
H42   H     H_    0.625863 0.373566 0.264744 0.263810
H43   H     H_    0.707410 0.333039 0.382731 0.238697
H44   H     H_    0.787799 0.370451 0.302901 0.166264
H45   H     H_    0.833520 0.394026 0.433805 0.179653
H46   H     H_    0.921109 0.910659 0.515008 0.145075
H47   H     H_    0.704344 0.553164 0.444478 0.268762
H48   H     H_    0.816095 0.587328 0.523981 0.247786
H49   H     H_    0.710964 0.626500 0.463689 0.242164
H50   H     H_    0.788631 0.631238 0.361130 0.158136
H51   H     H_    0.668118 0.616454 0.285879 0.190364
H52   H     H_    0.431371 0.590581 0.520829 0.146936
H53   H     H_    0.421107 0.410659 0.515007 0.145075
H54   H     H_    0.099411 0.037197 0.507060 0.157962
H55   H     H_    0.100790 0.963396 0.505305 0.153554
H56   H     H_    0.599413 0.537196 0.507062 0.157962
H57   H     H_    0.937603 0.145208 0.171808 0.080047
H58   H     H_    0.600790 0.463396 0.505306 0.153554
H59   H     H_    0.084667 0.034109 0.645302 0.154880
H60   H     H_    0.080634 0.960428 0.639448 0.154730
H61   H     H_    0.584668 0.534108 0.645304 0.154880
H62   H     H_    0.580634 0.460427 0.639449 0.154730
H63   H     H_    0.655927 0.190136 0.817317 0.145799
H64   H     H_    0.663033 0.807178 0.816871 0.144734
H65   H     H_    0.155898 0.690117 0.817323 0.145799
H66   H     H_    0.162976 0.307225 0.816878 0.144722
H67   H     H_    0.624124 0.144073 0.883353 0.151646
H68   H     H_    0.438774 0.353761 0.171828 0.082807
H69   H     H_    0.625146 0.851317 0.879455 0.153331
H70   H     H_    0.124129 0.644059 0.883401 0.151644
H71   H     H_    0.125145 0.351337 0.879550 0.153339
H72   H     H_    0.540663 0.213823 0.892635 0.153431
H73   H     H_    0.543829 0.778699 0.881807 0.152761
H74   H     H_    0.040674 0.713808 0.892698 0.153432
H75   H     H_    0.043819 0.278708 0.881852 0.152748
H76   H     H_    0.067645 0.755454 0.816622 0.143502
H77   H     H_    0.083646 0.237958 0.817094 0.145338
H78   H     H_    0.567681 0.255476 0.816612 0.143507
H79   H     H_    0.437608 0.645208 0.171810 0.080048
H80   H     H_    0.583671 0.737933 0.817087 0.145340
H81   H     H_    0.310399 0.744927 0.933788 0.153387
H82   H     H_    0.318795 0.253224 0.938888 0.153981
H83   H     H_    0.810430 0.244935 0.933833 0.153391
H84   H     H_    0.818875 0.753213 0.938984 0.153980
H85   H     H_    0.757585 0.135006 0.822694 0.087097
H86   H     H_    0.759268 0.864676 0.822413 0.086144
H87   H     H_    0.257584 0.635007 0.822696 0.087096
H88   H     H_    0.259268 0.364673 0.822415 0.086137
H89   H     H_    0.219303 0.813630 0.922543 0.155138
H90   H     H_    0.836613 0.052514 0.298716 0.154000
H91   H     H_    0.236654 0.181865 0.936404 0.155093
H92   H     H_    0.719345 0.313643 0.922604 0.155142
H93   H     H_    0.736694 0.681863 0.936448 0.155105
H94   H     H_    0.822825 0.178911 0.174095 0.142422
H95   H     H_    0.822595 0.819581 0.172658 0.144026
H96   H     H_    0.322859 0.678926 0.174112 0.142419
H97   H     H_    0.322653 0.319544 0.172685 0.144031
H98   H     H_    0.716331 0.141836 0.088615 0.153560
H99   H     H_    0.715719 0.856757 0.084125 0.153010
H100  H     H_    0.216365 0.641846 0.088666 0.153562
H101  H     H_    0.837176 0.948737 0.296691 0.153062
H102  H     H_    0.215798 0.356749 0.084225 0.153004
H103  H     H_    0.641421 0.215914 0.100264 0.151366
H104  H     H_    0.637767 0.782979 0.088969 0.151954
H105  H     H_    0.141471 0.715929 0.100328 0.151363
H106  H     H_    0.137807 0.282978 0.089022 0.151954
H107  H     H_    0.249319 0.753278 0.173944 0.148482
H108  H     H_    0.246974 0.246954 0.173378 0.145895
H109  H     H_    0.749272 0.253257 0.173932 0.148478
H110  H     H_    0.746945 0.746971 0.173355 0.145908
H111  H     H_    0.375214 0.743895 0.079738 0.153111
H112  H     H_    0.336615 0.552515 0.298718 0.153999
H113  H     H_    0.383605 0.256515 0.084649 0.152185
H114  H     H_    0.875224 0.243887 0.079780 0.153107
H115  H     H_    0.883619 0.756522 0.084737 0.152182
H116  H     H_    0.290197 0.815992 0.068840 0.153086
H117  H     H_    0.303266 0.184683 0.082468 0.152753
H118  H     H_    0.790212 0.315981 0.068900 0.153083
H119  H     H_    0.803271 0.684683 0.082506 0.152751
H120  H     H_    0.430903 0.920394 0.393661 0.147424
H121  H     H_    0.422534 0.091633 0.477793 0.167186
H122  H     H_    0.930903 0.420393 0.393663 0.147424
H123  H     H_    0.337176 0.448738 0.296691 0.153060
H124  H     H_    0.922535 0.591633 0.477792 0.167186
H125  H     H_    0.424818 0.975449 0.311896 0.151786
H126  H     H_    0.423003 0.075628 0.361545 0.147575
H127  H     H_    0.924819 0.475448 0.311898 0.151787
H128  H     H_    0.923003 0.575627 0.361544 0.147575
H129  H     H_    0.583635 0.979396 0.422293 0.153134
H130  H     H_    0.581642 0.076865 0.475619 0.151048
H131  H     H_    0.083636 0.479394 0.422296 0.153134
H132  H     H_    0.081641 0.576863 0.475616 0.151050
H133  H     H_    0.723172 0.912952 0.673440 0.079896
H134  H     H_    0.821775 0.055312 0.439727 0.151411
H135  H     H_    0.730282 0.089375 0.675257 0.084021
H136  H     H_    0.223171 0.412952 0.673442 0.079896
H137  H     H_    0.230281 0.589375 0.675258 0.084021
H138  H     H_    0.584790 0.922380 0.498303 0.143197
H139  H     H_    0.574564 0.091212 0.587635 0.148914
H140  H     H_    0.084789 0.422379 0.498307 0.143197
H141  H     H_    0.074565 0.591213 0.587632 0.148913
H142  H     H_    0.415255 0.948444 0.562050 0.147223
H143  H     H_    0.421354 0.019117 0.590479 0.157583
H144  H     H_    0.915256 0.448445 0.562051 0.147222
N1    N     N_R   0.950530 0.896220 0.057200 -0.035156
N2    N     N_R   0.818150 0.028600 0.792440 -0.030315
N3    N     N_R   0.318150 0.471400 0.792440 -0.030157
N4    N     N_R   0.318150 0.528600 0.792440 -0.030314
N5    N     N_R   0.025710 0.028600 0.207560 -0.028497
N6    N     N_R   0.025710 0.971400 0.207560 -0.025968
N7    N     N_R   0.525710 0.528600 0.207560 -0.028496
N8    N     N_R   0.525710 0.471400 0.207560 -0.025967
N9    N     N_R   0.181850 0.971400 0.207560 -0.065110
N10   N     N_R   0.181850 0.028600 0.207560 -0.084425
N11   N     N_R   0.681850 0.471400 0.207560 -0.065110
N12   N     N_R   0.950530 0.103780 0.057200 -0.035741
N13   N     N_R   0.681850 0.528600 0.207560 -0.084425
N14   N     N_R   0.974290 0.028600 0.792440 -0.034473
N15   N     N_R   0.974290 0.971400 0.792440 -0.034762
N16   N     N_R   0.474290 0.528600 0.792440 -0.034473
N17   N     N_R   0.474290 0.471400 0.792440 -0.034763
N18   N     N_R   0.049470 0.896220 0.942800 -0.035665
N19   N     N_R   0.049470 0.103780 0.942800 -0.034671
N20   N     N_R   0.549470 0.396220 0.942800 -0.035666
N21   N     N_R   0.549470 0.603780 0.942800 -0.034671
N22   N     N_R   0.106670 0.103780 0.057200 -0.040217
N23   N     N_R   0.450530 0.396220 0.057200 -0.035158
N24   N     N_R   0.106670 0.896220 0.057200 -0.034152
N25   N     N_R   0.606670 0.603780 0.057200 -0.040216
N26   N     N_R   0.606670 0.396220 0.057200 -0.034152
N27   N     N_R   0.450530 0.603780 0.057200 -0.035741
N28   N     N_R   0.893330 0.103780 0.942800 -0.034301
N29   N     N_R   0.893330 0.896220 0.942800 -0.033347
N30   N     N_R   0.393330 0.603780 0.942800 -0.034301
N31   N     N_R   0.393330 0.396220 0.942800 -0.033348
N32   N     N_R   0.818150 0.971400 0.792440 -0.030158
Ni1   Ni    Ni4+2 0.065600 0.934400 0.131190 0.206178
Ni2   Ni    Ni4+2 0.065600 0.065600 0.131190 0.196911
Ni3   Ni    Ni4+2 0.565600 0.434400 0.131190 0.206178
Ni4   Ni    Ni4+2 0.565600 0.565600 0.131190 0.196911
Ni5   Ni    Ni4+2 0.934400 0.065600 0.868810 0.202277
Ni6   Ni    Ni4+2 0.934400 0.934400 0.868810 0.203879
Ni7   Ni    Ni4+2 0.434400 0.565600 0.868810 0.202276
Ni8   Ni    Ni4+2 0.434400 0.434400 0.868810 0.203879

loop_
_geom_bond_atom_site_label_1
_geom_bond_atom_site_label_2
_ccdc_geom_bond_type
C37   H112  S    
C8    C26   A    
C19   C20   S    
C10   N11   A    
C17   H33   S    
C79   C87   S    
C51   H86   S    
C55   N27   A    
C32   C81   S    
C70   H98   S    
C15   N16   A    
C112  H4    S    
N7    N8    A    
C51   C118  A    
C60   C62   S    
C66   N18   A    
C4    C96   A    
C43   H55   S    
C9    C19   S    
C55   H79   S    
C45   C56   S    
C70   C74   S    
C90   H109  S    
C94   H127  S    
N19   Ni5   S    
N20   N26   A    
C20   H38   S    
C21   C22   S    
C28   C48   S    
C18   H32   S    
C41   C49   S    
N11   Ni3   S    
C9    C26   A    
C31   C77   A    
C45   C47   S    
C10   C21   S    
C115  N6    A    
C91   H110  S    
C70   H94   S    
C77   H18   S    
C22   H41   S    
C82   C91   S    
C78   C120  S    
C24   C32   A    
C114  H8    S    
C43   C54   S    
C110  N22   A    
C5    C100  A    
C11   C27   A    
C105  H143  S    
C106  H144  S    
C34   C99   A    
C111  C113  S    
C61   H76   S    
N30   Ni7   S    
C83   H89   S    
C81   C90   S    
C105  C112  S    
N21   Ni7   S    
C64   H80   S    
C109  C112  S    
C114  N5    A    
C40   H2    S    
C40   C48   S    
C100  H137  S    
C12   H12   S    
C3    C52   A    
C33   N12   A    
C5    C111  S    
C8    C17   S    
C103  H131  S    
C90   H103  S    
C27   C108  S    
C11   C23   S    
C31   C110  A    
N23   N31   A    
C57   H67   S    
C95   C108  S    
N18   Ni6   S    
C116  H10   S    
C102  C109  S    
C91   H104  S    
C18   H30   S    
C10   C27   A    
C4    C109  S    
C104  H132  S    
C103  H140  S    
C7    C117  A    
C84   H117  S    
C89   H106  S    
C41   H13   S    
C84   H91   S    
C71   H99   S    
C29   C49   S    
N32   Ni6   S    
C38   H123  S    
C105  C107  S    
C60   C78   S    
C19   H40   S    
N2    N32   A    
N7    Ni4   S    
C24   H25   S    
C68   C74   S    
C63   H72   S    
C32   C88   A    
N21   N25   A    
C16   N17   A    
C85   H118  S    
C6    C114  A    
C3    C55   A    
C36   C46   S    
C37   C47   S    
C116  N7    A    
N15   Ni6   S    
C4    C97   A    
N19   N22   A    
C68   C85   S    
C58   H69   S    
N4    Ni7   S    
C88   N20   A    
N5    Ni2   S    
C57   C63   S    
C25   H48   S    
C58   C64   S    
C72   H100  S    
C59   C61   S    
C106  C113  S    
C33   H57   S    
N16   N17   A    
C113  H6    S    
C100  N4    A    
C39   H35   S    
C7    C116  A    
C110  H21   S    
N1    N29   A    
C17   C18   S    
C23   H51   S    
N28   Ni5   S    
N27   Ni4   S    
C45   H58   S    
C30   C79   S    
C2    H22   S    
C89   H108  S    
C16   H16   S    
C72   C87   S    
C44   N23   A    
C92   H120  S    
N16   Ni7   S    
C101  H129  S    
C62   H77   S    
N12   Ni2   S    
N3    N4    A    
C103  C111  S    
C2    C30   A    
C69   H115  S    
C93   H121  S    
C106  C108  S    
C61   C79   S    
C71   H95   S    
C59   H65   S    
C37   C41   S    
C117  H11   S    
N9    Ni1   S    
N14   Ni5   S    
C69   H84   S    
N14   N15   A    
C34   C82   S    
C36   H101  S    
C81   C85   S    
C14   N15   A    
C52   H87   S    
C80   C84   S    
C53   C120  A    
C31   C80   S    
N18   N24   A    
C65   C76   S    
N23   Ni3   S    
C12   C28   A    
C35   H90   S    
C22   H42   S    
C56   H61   S    
C44   C120  A    
C101  C109  S    
C53   H88   S    
C21   H45   S    
C54   H59   S    
C58   H64   S    
C80   C89   S    
C67   H113  S    
C105  H142  S    
N24   Ni1   S    
C20   H36   S    
C38   H29   S    
C8    N9    A    
C95   H124  S    
C97   H135  S    
C21   H44   S    
N5    N6    A    
N3    Ni8   S    
C75   C118  S    
C62   H75   S    
C17   H34   S    
C15   C29   A    
C65   H111  S    
C82   C86   S    
C35   H26   S    
C7    C47   S    
C35   C39   S    
N13   Ni4   S    
C36   H27   S    
C101  H138  S    
C86   H119  S    
C77   N19   A    
N17   Ni8   S    
C68   H114  S    
C92   C101  S    
N6    Ni1   S    
C72   H96   S    
C94   C103  S    
C87   H107  S    
C20   H37   S    
C42   H24   S    
C104  H141  S    
C50   N28   A    
C18   H31   S    
C2    N24   A    
C62   C80   S    
C93   C102  S    
C92   H125  S    
N1    Ni1   S    
C63   H78   S    
C19   H39   S    
C73   C89   S    
C13   C34   A    
C79   C83   S    
C69   C75   S    
C13   H23   S    
C37   H28   S    
C6    C115  A    
C93   H126  S    
C97   N2    A    
C71   C91   S    
C83   H116  S    
C59   H70   S    
C35   C46   S    
C11   N13   A    
C39   C48   S    
C13   N25   A    
C72   C76   S    
C98   H136  S    
C39   H134  S    
C25   H47   S    
C48   C54   S    
C74   C119  S    
C23   H50   S    
C94   C108  S    
C73   H102  S    
C63   C81   S    
N11   N13   A    
C96   H133  S    
C38   C42   S    
N10   Ni2   S    
C43   H54   S    
C65   C83   S    
C15   H15   S    
C102  H139  S    
C87   H105  S    
C106  H3    S    
C73   C78   S    
C40   H46   S    
C67   C84   S    
C68   H83   S    
C70   C90   S    
C67   C78   S    
C58   C75   S    
C1    H1    S    
C99   N21   A    
C41   H52   S    
C50   C119  A    
C9    N10   A    
C36   C40   S    
N27   N30   A    
C45   H56   S    
C14   H14   S    
C16   C29   A    
C57   C74   S    
C96   N32   A    
C88   H19   S    
C95   H128  S    
C92   C107  S    
N8    Ni3   S    
C98   N3    A    
C64   H73   S    
N2    Ni5   S    
N9    N10   A    
C112  H5    S    
C73   H97   S    
C3    C76   S    
C64   C82   S    
C38   C47   S    
C30   C66   A    
C44   H68   S    
C33   C119  A    
C99   H20   S    
C85   H92   S    
C12   N14   A    
C57   H63   S    
C117  N8    A    
C95   C104  S    
C115  H9    S    
C25   H49   S    
N20   Ni8   S    
C60   H66   S    
C6    C46   S    
C102  H130  S    
N25   Ni4   S    
N26   Ni3   S    
C42   H53   S    
C26   C107  S    
C104  C111  S    
C113  H7    S    
C49   C56   S    
C14   C28   A    
C94   H122  S    
C86   H93   S    
C67   H82   S    
C93   C107  S    
C71   C75   S    
C22   H43   S    
C66   H17   S    
C56   H62   S    
C60   H71   S    
C59   C76   S    
C54   H60   S    
C1    C118  A    
C23   C25   S    
C43   C46   S    
C24   N26   A    
C51   N29   A    
C42   C49   S    
N12   N28   A    
C50   H85   S    
C65   H81   S    
C5    C98   A    
N22   Ni2   S    
C1    N1    A    
C52   N30   A    
N29   Ni6   S    
C61   H74   S    
C53   N31   A    
C69   C86   S    
N31   Ni8   S    
