data_mof_unit_pretest_1906.cif
_audit_creation_date              2013-03-05T16:13:53-0500
_audit_creation_method            fapswitch 2.2
_symmetry_space_group_name_H-M    P1
_symmetry_Int_Tables_number       1
_space_group_crystal_system       triclinic
_cell_length_a                    43.985368
_cell_length_b                    30.302111
_cell_length_c                    31.835281
_cell_angle_alpha                 89.997286
_cell_angle_beta                  136.479239
_cell_angle_gamma                 89.999739
_cell_volume                      29219.1631404

loop_
_atom_site_label
_atom_site_type_symbol
_atom_site_description
_atom_site_fract_x
_atom_site_fract_y
_atom_site_fract_z
_atom_type_partial_charge
O1    O     O_R   0.565460 0.963010 0.065460 -0.626763
O2    O     O_R   0.434540 0.963010 0.934540 -0.626312
O3    O     O_R   0.065460 0.463010 0.065460 -0.626852
O4    O     O_R   0.934540 0.463010 0.934540 -0.626417
O5    O     O_R   0.565400 0.036920 0.065400 -0.621813
O6    O     O_R   0.434600 0.036920 0.934600 -0.621996
O7    O     O_R   0.065400 0.536920 0.065400 -0.621692
O8    O     O_R   0.934600 0.536920 0.934600 -0.622082
C1    C     C_R   0.586268 0.999979 0.086325 0.871302
C2    C     C_R   0.413732 0.999982 0.913675 0.871736
C3    C     C_R   0.086283 0.499980 0.086357 0.871640
C4    C     C_R   0.913731 0.499982 0.913676 0.871652
O9    O     O_R   0.499990 0.963010 0.061610 -0.625047
O10   O     O_R   0.500010 0.963010 0.938390 -0.625661
O11   O     O_R   0.999990 0.463010 0.061610 -0.624698
O12   O     O_R   0.000010 0.463010 0.938390 -0.625219
O13   O     O_R   0.499940 0.036920 0.061550 -0.602018
O14   O     O_R   0.500060 0.036920 0.938450 -0.601208
O15   O     O_R   0.999940 0.536920 0.061550 -0.602453
O16   O     O_R   0.000060 0.536920 0.938450 -0.601827
C5    C     C_R   0.499960 0.999946 0.081197 0.911560
C6    C     C_R   0.500040 0.999949 0.918806 0.911316
C7    C     C_R   0.999960 0.499946 0.081196 0.911613
C8    C     C_R   0.000040 0.499949 0.918805 0.911757
Zn1   Zn    Zn3+2 0.500000 0.950610 0.000000 0.964702
Zn2   Zn    Zn3+2 0.000000 0.450610 0.000000 0.965214
Zn3   Zn    Zn3+2 0.500000 0.049320 0.000000 1.004357
Zn4   Zn    Zn3+2 0.000000 0.549320 0.000000 1.003501
C9    C     C_3   0.538390 0.983102 0.303031 -0.181343
C10   C     C_3   0.462468 0.981374 0.697849 -0.181541
C11   C     C_3   0.038543 0.483447 0.303185 -0.181192
C12   C     C_3   0.961487 0.483394 0.696852 -0.181246
C13   C     C_3   0.531765 0.023841 0.267425 -0.219950
C14   C     C_3   0.467234 0.022374 0.731582 -0.220044
C15   C     C_3   0.031557 0.524126 0.267218 -0.219945
C16   C     C_3   0.968406 0.524088 0.732740 -0.219900
H1    H     H_    0.558680 0.045020 0.281987 0.168381
H2    H     H_    0.439382 0.042304 0.716090 0.168230
H3    H     H_    0.058283 0.545543 0.281592 0.168376
H4    H     H_    0.941642 0.545466 0.718326 0.168389
H5    H     H_    0.570507 0.971093 0.347535 0.151446
H6    H     H_    0.430926 0.967906 0.653937 0.151360
H7    H     H_    0.070764 0.471724 0.347796 0.151520
H8    H     H_    0.929283 0.471613 0.652262 0.151463
H9    H     H_    0.486949 0.074031 0.261515 0.179283
H10   H     H_    0.509683 0.074556 0.735097 0.178835
H11   H     H_    0.986294 0.573914 0.260858 0.179351
H12   H     H_    0.013579 0.573943 0.738997 0.179373
C17   C     C_1   0.499773 0.999677 0.125457 -0.150541
C18   C     C_1   0.500288 0.999692 0.874604 -0.150656
C19   C     C_1   0.999782 0.499677 0.125465 -0.150573
C20   C     C_1   0.000224 0.499688 0.874541 -0.150572
C21   C     C_1   0.499791 0.999855 0.374092 -0.127577
C22   C     C_1   0.500213 0.999863 0.625912 -0.127653
C23   C     C_1   0.999792 0.499854 0.374093 -0.127539
C24   C     C_1   0.000208 0.499852 0.625907 -0.127543
C25   C     C_3   0.505582 0.956372 0.242927 -0.001482
C26   C     C_3   0.496482 0.956171 0.759149 -0.001569
C27   C     C_3   0.005975 0.456426 0.243321 -0.001463
C28   C     C_3   0.994104 0.456430 0.756770 -0.001483
C29   C     C_3   0.499202 0.996791 0.207816 0.047697
C30   C     C_3   0.501016 0.996843 0.792406 0.047767
C31   C     C_3   0.999237 0.496787 0.207851 0.047693
C32   C     C_3   0.000774 0.496808 0.792163 0.047689
C33   C     C_3   0.466466 0.971761 0.231520 -0.258758
C34   C     C_3   0.534837 0.973329 0.769778 -0.258237
C35   C     C_3   0.966723 0.471466 0.231775 -0.258887
C36   C     C_3   0.033328 0.471529 0.768284 -0.258938
C37   C     C_3   0.499274 0.998918 0.290682 0.119036
C38   C     C_3   0.500805 0.998957 0.709399 0.119154
C39   C     C_3   0.999286 0.498914 0.290694 0.118997
C40   C     C_3   0.000715 0.498919 0.709309 0.119027
C41   C     C_3   0.461120 0.012273 0.197486 0.354171
C42   C     C_3   0.538337 0.014044 0.801952 0.354214
C43   C     C_3   0.961017 0.511929 0.197382 0.354180
C44   C     C_3   0.038967 0.512005 0.802598 0.354113
C45   C     C_3   0.492785 0.039809 0.256218 -0.176911
C46   C     C_3   0.505429 0.040104 0.741985 -0.177212
C47   C     C_3   0.992435 0.539746 0.255868 -0.176902
C48   C     C_3   0.007499 0.539767 0.744058 -0.176799
C49   C     C_1   0.499537 0.998576 0.162717 0.002878
C50   C     C_1   0.500597 0.998606 0.837418 0.002804
C51   C     C_1   0.999558 0.498575 0.162737 0.002874
C52   C     C_1   0.000452 0.498593 0.837273 0.002887
C53   C     C_1   0.499583 0.999611 0.336384 -0.006579
C54   C     C_1   0.500443 0.999633 0.663644 -0.006639
C55   C     C_1   0.999587 0.499609 0.336387 -0.006554
C56   C     C_1   0.000412 0.499609 0.663613 -0.006581
H13   H     H_    0.439275 0.950903 0.216644 0.173386
H14   H     H_    0.562950 0.953733 0.785567 0.173507
H15   H     H_    0.939718 0.450367 0.217085 0.173356
H16   H     H_    0.060370 0.450470 0.783013 0.173302
C57   C     C_R   0.702932 0.040231 0.199298 -0.151032
C58   C     C_R   0.297067 0.040250 0.800695 -0.150958
C59   C     C_R   0.203357 0.460192 0.204952 -0.160129
C60   C     C_R   0.797065 0.540257 0.800633 -0.151091
H17   H     H_    0.720272 0.071382 0.214049 0.151500
H18   H     H_    0.279726 0.071403 0.785937 0.151401
H19   H     H_    0.221015 0.429111 0.223247 0.141740
H20   H     H_    0.779726 0.571417 0.785817 0.151261
C61   C     C_R   0.657206 0.040077 0.153692 -0.166456
C62   C     C_R   0.342793 0.040090 0.846302 -0.166466
C63   C     C_R   0.157569 0.460029 0.159093 -0.179948
C64   C     C_R   0.842792 0.540097 0.846236 -0.166604
H21   H     H_    0.639894 0.071208 0.133502 0.169287
H22   H     H_    0.360106 0.071219 0.866486 0.169125
H23   H     H_    0.140460 0.428670 0.142849 0.163402
H24   H     H_    0.860104 0.571232 0.866359 0.168997
C65   C     C_R   0.634282 0.000072 0.134432 -0.037327
C66   C     C_R   0.365717 0.000081 0.865569 -0.037268
C67   C     C_R   0.134325 0.500051 0.134541 -0.037191
C68   C     C_R   0.865716 0.500081 0.865573 -0.037146
C69   C     C_R   0.657562 0.960243 0.161469 -0.181554
C70   C     C_R   0.342437 0.960255 0.838539 -0.180838
C71   C     C_R   0.157324 0.540195 0.156368 -0.167997
C72   C     C_R   0.842435 0.460247 0.838619 -0.180868
H25   H     H_    0.640482 0.928998 0.147314 0.162726
H26   H     H_    0.359516 0.929007 0.852700 0.162941
H27   H     H_    0.140075 0.571478 0.138280 0.168607
H28   H     H_    0.859513 0.428993 0.852836 0.162852
C73   C     C_R   0.703344 0.960461 0.207285 -0.160950
C74   C     C_R   0.296656 0.960479 0.792723 -0.160556
C75   C     C_R   0.203062 0.540296 0.201996 -0.151411
C76   C     C_R   0.796653 0.460472 0.792810 -0.160486
H29   H     H_    0.721026 0.929496 0.227544 0.140808
H30   H     H_    0.278973 0.929516 0.772468 0.140954
H31   H     H_    0.220493 0.571506 0.218763 0.151628
H32   H     H_    0.778971 0.429503 0.772616 0.140923
C77   C     C_R   0.726078 0.000440 0.226094 0.130351
C78   C     C_R   0.273922 0.000461 0.773906 0.130336
C79   C     C_R   0.226129 0.500318 0.226243 0.129649
C80   C     C_R   0.773918 0.500462 0.773919 0.130438
C81   C     C_R   0.797485 0.978441 0.328410 -0.153760
C82   C     C_R   0.202519 0.978467 0.671591 -0.153718
C83   C     C_R   0.297527 0.477191 0.327714 -0.153263
C84   C     C_R   0.702517 0.478381 0.671656 -0.153774
H33   H     H_    0.780401 0.960452 0.335805 0.146381
H34   H     H_    0.219610 0.960481 0.664199 0.146405
H35   H     H_    0.280440 0.458313 0.334490 0.146865
H36   H     H_    0.719610 0.460326 0.664313 0.146340
C85   C     C_R   0.843166 0.979594 0.374207 -0.214135
C86   C     C_R   0.156839 0.979611 0.625794 -0.214039
C87   C     C_R   0.343213 0.478411 0.373554 -0.215853
C88   C     C_R   0.656837 0.479524 0.625851 -0.214105
H37   H     H_    0.860892 0.961610 0.416078 0.167532
H38   H     H_    0.139117 0.961626 0.583928 0.167557
H39   H     H_    0.360990 0.459645 0.414895 0.166555
H40   H     H_    0.639116 0.461471 0.584032 0.167478
C89   C     C_R   0.865809 0.002967 0.365627 -0.129136
C90   C     C_R   0.134190 0.002976 0.634371 -0.129131
C91   C     C_R   0.365820 0.502843 0.365648 -0.129038
C92   C     C_R   0.634186 0.502978 0.634363 -0.129169
C93   C     C_R   0.842309 0.026298 0.310753 0.319660
C94   C     C_R   0.157684 0.026309 0.689236 0.319630
C95   C     C_R   0.342294 0.527144 0.311441 0.319413
C96   C     C_R   0.657674 0.526403 0.689161 0.319514
C97   C     C_R   0.796365 0.024380 0.264823 -0.216774
C98   C     C_R   0.203629 0.024399 0.735166 -0.216445
C99   C     C_R   0.296332 0.525310 0.265565 -0.215574
C100  C     C_R   0.703620 0.524492 0.735104 -0.216430
H41   H     H_    0.777884 0.041928 0.222415 0.183206
H42   H     H_    0.222107 0.041949 0.777569 0.183259
H43   H     H_    0.277785 0.543715 0.223717 0.183888
H44   H     H_    0.722093 0.542112 0.777459 0.183232
C101  C     C_R   0.774054 0.000779 0.273691 0.042061
C102  C     C_R   0.225946 0.000803 0.726304 0.042048
C103  C     C_R   0.274079 0.500633 0.273748 0.040937
C104  C     C_R   0.725941 0.500805 0.726311 0.042080
O17   O     O_R   0.536910 0.934410 0.536900 -0.634019
O18   O     O_R   0.463090 0.934410 0.463100 -0.633866
O19   O     O_R   0.036910 0.434410 0.536900 -0.633903
O20   O     O_R   0.963090 0.434410 0.463100 -0.633893
C105  C     C_R   0.500001 0.913576 0.499993 0.842127
C106  C     C_R   0.000001 0.413575 0.500001 0.842161
O21   O     O_R   0.536920 0.999880 0.475310 -0.630002
O22   O     O_R   0.463080 0.999880 0.524690 -0.629821
O23   O     O_R   0.036920 0.499880 0.475310 -0.629984
O24   O     O_R   0.963080 0.499880 0.524690 -0.630000
O25   O     O_R   0.463000 0.999950 0.401380 -0.585012
O26   O     O_R   0.537000 0.999950 0.598620 -0.585256
O27   O     O_R   0.963000 0.499950 0.401380 -0.585009
O28   O     O_R   0.037000 0.499950 0.598620 -0.584999
C107  C     C_R   0.499920 0.999912 0.418679 0.939109
C108  C     C_R   0.500079 0.999911 0.581322 0.939056
C109  C     C_R   0.999920 0.499912 0.418679 0.939090
C110  C     C_R   0.000079 0.499911 0.581322 0.939084
Zn5   Zn    Zn3+2 0.549320 0.999860 0.549320 1.036174
Zn6   Zn    Zn3+2 0.450680 0.999860 0.450680 1.036667
Zn7   Zn    Zn3+2 0.049320 0.499860 0.549320 1.036586
Zn8   Zn    Zn3+2 0.950680 0.499860 0.450680 1.036544
O29   O     O_R   0.536940 0.065340 0.536940 -0.589329
O30   O     O_R   0.463060 0.065340 0.463060 -0.589279
O31   O     O_R   0.036940 0.565340 0.536940 -0.589291
O32   O     O_R   0.963060 0.565340 0.463060 -0.589323
C111  C     C_R   0.499999 0.086001 0.499998 1.008274
C112  C     C_R   0.999999 0.586001 0.499998 1.008272
O33   O     O_R   0.999920 0.065420 0.534690 -0.572124
O34   O     O_R   0.000080 0.065420 0.465310 -0.572131
O35   O     O_R   0.499920 0.565420 0.534690 -0.571935
O36   O     O_R   0.500080 0.565420 0.465310 -0.571892
C113  C     C_R   0.000000 0.086242 0.499999 1.045630
C114  C     C_R   0.499997 0.586246 0.500001 1.046348
O37   O     O_R   0.934500 0.999950 0.469270 -0.609601
O38   O     O_R   0.065500 0.999950 0.530730 -0.609606
O39   O     O_R   0.434500 0.499950 0.469270 -0.608829
O40   O     O_R   0.565500 0.499950 0.530730 -0.609546
O41   O     O_R   0.934490 0.999950 0.399700 -0.596406
O42   O     O_R   0.065510 0.999950 0.600300 -0.596342
O43   O     O_R   0.434490 0.499950 0.399700 -0.597096
O44   O     O_R   0.565510 0.499950 0.600300 -0.596401
C115  C     C_R   0.913654 0.001156 0.413575 0.941808
C116  C     C_R   0.086346 0.001156 0.586424 0.941842
C117  C     C_R   0.413656 0.501112 0.413582 0.942246
C118  C     C_R   0.586345 0.501157 0.586422 0.941624
Zn9   Zn    Zn3+2 0.999970 0.999950 0.546410 1.077773
Zn10  Zn    Zn3+2 0.000030 0.999950 0.453590 1.077681
Zn11  Zn    Zn3+2 0.499970 0.499950 0.546410 1.078426
Zn12  Zn    Zn3+2 0.500030 0.499950 0.453590 1.076949
O45   O     O_R   0.000010 0.934490 0.534800 -0.637488
O46   O     O_R   0.999990 0.934490 0.465200 -0.637514
O47   O     O_R   0.500010 0.434490 0.534800 -0.637503
O48   O     O_R   0.499990 0.434490 0.465200 -0.637600
C119  C     C_R   1.000000 0.913522 0.500001 0.840247
C120  C     C_R   0.499999 0.413522 0.500000 0.840092
C121  C     C_R   0.459925 0.796828 0.458757 -0.158531
C122  C     C_R   0.540108 0.796831 0.541102 -0.158942
C123  C     C_R   0.959922 0.296827 0.458597 -0.158627
C124  C     C_R   0.040089 0.296824 0.541401 -0.158659
H45   H     H_    0.428751 0.779343 0.426312 0.151337
H46   H     H_    0.571286 0.779349 0.573546 0.151113
H47   H     H_    0.928754 0.279347 0.425970 0.151223
H48   H     H_    0.071258 0.279341 0.574027 0.151194
C125  C     C_R   0.459896 0.842542 0.458761 -0.188622
C126  C     C_R   0.540125 0.842545 0.541140 -0.188877
C127  C     C_R   0.959898 0.342542 0.458585 -0.188577
C128  C     C_R   0.040111 0.342539 0.541415 -0.188599
H49   H     H_    0.428553 0.859722 0.426472 0.168305
H50   H     H_    0.571463 0.859727 0.573447 0.168176
H51   H     H_    0.928563 0.359724 0.426106 0.168288
H52   H     H_    0.071444 0.359719 0.573895 0.168270
C129  C     C_R   0.500007 0.865617 0.499967 -0.032788
C130  C     C_R   0.000003 0.365614 0.500001 -0.032844
C131  C     C_R   0.500019 0.773903 0.499925 0.155485
C132  C     C_R   0.000006 0.273896 0.499999 0.155459
C133  C     C_R   0.027522 0.203142 0.499930 -0.211964
C134  C     C_R   0.972487 0.203146 0.500069 -0.211980
C135  C     C_R   0.527322 0.703135 0.499496 -0.211930
C136  C     C_R   0.472751 0.703184 0.500512 -0.212227
H53   H     H_    0.048870 0.221192 0.500073 0.180021
H54   H     H_    0.951140 0.221198 0.499927 0.180021
H55   H     H_    0.548505 0.721170 0.499312 0.179964
H56   H     H_    0.451596 0.721257 0.500719 0.180021
C137  C     C_R   0.028461 0.157269 0.500966 0.295210
C138  C     C_R   0.971543 0.157274 0.499028 0.295204
C139  C     C_R   0.528272 0.657264 0.500579 0.295227
C140  C     C_R   0.471820 0.657313 0.499545 0.295958
C141  C     C_R   0.000001 0.134106 0.499998 -0.268943
C142  C     C_R   0.500023 0.634117 0.500035 -0.268456
C143  C     C_R   0.000005 0.225939 0.500000 -0.019323
C144  C     C_R   0.500021 0.725951 0.499956 -0.019353
C145  C     C_R   0.473375 0.202870 0.444895 -0.218877
C146  C     C_R   0.526593 0.202865 0.555092 -0.218662
C147  C     C_R   0.973375 0.702871 0.444896 -0.218934
C148  C     C_R   0.026597 0.702865 0.555094 -0.218831
H57   H     H_    0.452914 0.220891 0.402357 0.184109
H58   H     H_    0.547049 0.220881 0.597629 0.184229
H59   H     H_    0.952913 0.720892 0.402359 0.184092
H60   H     H_    0.047055 0.720880 0.597632 0.184139
C149  C     C_R   0.473609 0.156971 0.444229 0.276032
C150  C     C_R   0.526369 0.156966 0.555761 0.275799
C151  C     C_R   0.973608 0.656972 0.444229 0.276039
C152  C     C_R   0.026372 0.656965 0.555762 0.275985
C153  C     C_R   0.499994 0.133847 0.499996 -0.291437
C154  C     C_R   0.999994 0.633847 0.499996 -0.291426
C155  C     C_R   0.499982 0.225718 0.499993 -0.021167
C156  C     C_R   0.999985 0.725718 0.499995 -0.021130
C157  C     C_R   0.996127 0.796735 0.534102 -0.158729
C158  C     C_R   0.003851 0.796734 0.465890 -0.158724
C159  C     C_R   0.496120 0.296735 0.534095 -0.158609
C160  C     C_R   0.503851 0.296734 0.465891 -0.158722
H61   H     H_    0.992617 0.779290 0.560103 0.146933
H62   H     H_    0.007357 0.779288 0.439887 0.146926
H63   H     H_    0.492607 0.279290 0.560093 0.147070
H64   H     H_    0.507360 0.279288 0.439891 0.146941
C161  C     C_R   0.996189 0.842471 0.534184 -0.185742
C162  C     C_R   0.003798 0.842469 0.465814 -0.185800
C163  C     C_R   0.496182 0.342471 0.534177 -0.185755
C164  C     C_R   0.503799 0.342469 0.465815 -0.185817
H65   H     H_    0.993029 0.859684 0.560682 0.166236
H66   H     H_    0.006962 0.859682 0.439317 0.166215
H67   H     H_    0.493020 0.359685 0.560673 0.166314
H68   H     H_    0.506966 0.359682 0.439321 0.166196
C165  C     C_R   0.999996 0.865546 0.500000 -0.030791
C166  C     C_R   0.499994 0.365546 0.499998 -0.030808
C167  C     C_R   0.999987 0.773753 0.499995 0.156975
C168  C     C_R   0.499983 0.273753 0.499992 0.156907
N1    N     N_R   0.864160 0.053251 0.301808 0.214689
O49   O     O_R   0.895757 0.079865 0.344650 -0.351211
O50   O     O_R   0.847921 0.056595 0.247827 -0.361021
N2    N     N_R   0.135825 0.053256 0.698173 0.214691
O51   O     O_R   0.104223 0.079867 0.655326 -0.351297
O52   O     O_R   0.152061 0.056594 0.752152 -0.360817
N3    N     N_R   0.364130 0.554881 0.303095 0.214530
O53   O     O_R   0.396237 0.580668 0.346865 -0.352717
O54   O     O_R   0.347551 0.559643 0.249048 -0.360582
N4    N     N_R   0.635805 0.553450 0.698005 0.214653
O55   O     O_R   0.604173 0.579988 0.655049 -0.351964
O56   O     O_R   0.652050 0.556941 0.751977 -0.360822
N5    N     N_R   0.059401 0.134988 0.505012 0.222194
O57   O     O_R   0.068168 0.150886 0.476750 -0.369566
O58   O     O_R   0.083918 0.103275 0.544238 -0.367947
N6    N     N_R   0.940598 0.134997 0.494974 0.222189
O59   O     O_R   0.931827 0.150894 0.523232 -0.369583
O60   O     O_R   0.916080 0.103290 0.455747 -0.367916
N7    N     N_R   0.559047 0.634967 0.504308 0.222191
O61   O     O_R   0.567502 0.650779 0.475631 -0.369551
O62   O     O_R   0.583763 0.603370 0.543658 -0.367803
N8    N     N_R   0.441176 0.635076 0.496133 0.222396
O63   O     O_R   0.432878 0.650995 0.524957 -0.369622
O64   O     O_R   0.416444 0.603394 0.456977 -0.366124
N9    N     N_R   0.448201 0.134575 0.387089 0.221685
O65   O     O_R   0.465528 0.102263 0.383178 -0.401009
O66   O     O_R   0.410516 0.150756 0.337149 -0.357500
N10   N     N_R   0.551783 0.134564 0.612900 0.221781
O67   O     O_R   0.534458 0.102245 0.616814 -0.400543
O68   O     O_R   0.589467 0.150739 0.662839 -0.356910
N11   N     N_R   0.948198 0.634576 0.387089 0.221662
O69   O     O_R   0.965523 0.602264 0.383175 -0.401093
O70   O     O_R   0.910512 0.650757 0.337151 -0.357694
N12   N     N_R   0.051787 0.634563 0.612901 0.221660
O71   O     O_R   0.034463 0.602245 0.616817 -0.401068
O72   O     O_R   0.089472 0.650737 0.662840 -0.357477
N13   N     N_R   0.418352 0.028340 0.140274 0.214796
O73   O     O_R   0.388912 0.040642 0.138098 -0.342317
O74   O     O_R   0.409151 0.030189 0.091201 -0.371528
N14   N     N_R   0.580331 0.032046 0.858371 0.214719
O75   O     O_R   0.609166 0.045677 0.859928 -0.341673
O76   O     O_R   0.589458 0.034308 0.907366 -0.371416
N15   N     N_R   0.918109 0.527615 0.140028 0.214792
O77   O     O_R   0.888559 0.539653 0.137741 -0.342533
O78   O     O_R   0.908895 0.529384 0.090941 -0.371595
N16   N     N_R   0.081848 0.527762 0.859921 0.214796
O79   O     O_R   0.111379 0.539837 0.862182 -0.342403
O80   O     O_R   0.091067 0.529546 0.909009 -0.371249
C169  C     C_R   0.513045 0.908280 0.240529 0.131284
C170  C     C_R   0.519380 0.878571 0.280240 -0.154835
C171  C     C_R   0.526321 0.833727 0.279296 -0.118514
C172  C     C_R   0.526931 0.818110 0.238643 -0.094483
C173  C     C_R   0.520545 0.847326 0.198855 -0.130466
C174  C     C_R   0.513589 0.892219 0.199658 -0.137178
H69   H     H_    0.518954 0.890184 0.311994 0.134691
H70   H     H_    0.531210 0.811090 0.310080 0.147247
H71   H     H_    0.532295 0.783384 0.237913 0.141161
H72   H     H_    0.520929 0.835170 0.167270 0.140079
H73   H     H_    0.508557 0.913811 0.168173 0.141577
C175  C     C_R   0.491245 0.907789 0.763795 0.131178
C176  C     C_R   0.486183 0.877824 0.725373 -0.154875
C177  C     C_R   0.481320 0.832710 0.728413 -0.118374
C178  C     C_R   0.481543 0.817080 0.769902 -0.094265
C179  C     C_R   0.486687 0.846554 0.808430 -0.130361
C180  C     C_R   0.491562 0.891717 0.805527 -0.137121
H74   H     H_    0.485988 0.889449 0.692997 0.134706
H75   H     H_    0.477395 0.809876 0.698609 0.147484
H76   H     H_    0.477788 0.782146 0.772255 0.141458
H77   H     H_    0.486957 0.834390 0.840669 0.140231
H78   H     H_    0.495691 0.913513 0.836098 0.141751
C181  C     C_R   0.013866 0.408403 0.241352 0.131264
C182  C     C_R   0.020460 0.378751 0.281322 -0.154801
C183  C     C_R   0.027801 0.333971 0.280778 -0.118521
C184  C     C_R   0.028554 0.318361 0.240269 -0.094496
C185  C     C_R   0.021914 0.347519 0.200226 -0.130326
C186  C     C_R   0.014559 0.392349 0.200629 -0.137075
H79   H     H_    0.019927 0.390360 0.312969 0.134701
H80   H     H_    0.032886 0.311377 0.311760 0.147218
H81   H     H_    0.034228 0.283684 0.239849 0.141150
H82   H     H_    0.022410 0.335369 0.168754 0.140154
H83   H     H_    0.009340 0.413896 0.168957 0.141589
C187  C     C_R   0.986300 0.408395 0.758843 0.131314
C188  C     C_R   0.979775 0.378721 0.718949 -0.154827
C189  C     C_R   0.972520 0.333929 0.719592 -0.118589
C190  C     C_R   0.971783 0.318329 0.760124 -0.094528
C191  C     C_R   0.978356 0.347510 0.800090 -0.130537
C192  C     C_R   0.985626 0.392350 0.799588 -0.137288
H84   H     H_    0.980296 0.390323 0.687287 0.134691
H85   H     H_    0.967486 0.311320 0.688671 0.147207
H86   H     H_    0.966176 0.283644 0.760619 0.141118
H87   H     H_    0.977873 0.335366 0.831580 0.140043
H88   H     H_    0.990793 0.413914 0.831205 0.141501

loop_
_geom_bond_atom_site_label_1
_geom_bond_atom_site_label_2
_geom_bond_distance
_ccdc_geom_bond_type
O32   C112  1.282130 A    
C81   H33   1.083453 S    
C176  C177  1.397832 A    
O36   Zn12  2.018384 S    
C86   H38   1.083669 S    
C138  N6    1.438827 S    
C64   H24   1.083041 S    
C84   H36   1.083553 S    
O34   Zn10  2.018384 S    
N3    O54   1.301298 A    
C149  N9    1.438886 S    
N13   O73   1.300194 A    
C83   H35   1.083425 S    
C18   C50   1.194183 T    
O37   Zn9   2.016816 S    
C94   C98   1.392850 A    
C21   C107  1.415322 S    
C179  H77   1.082430 S    
C59   H19   1.083240 S    
C44   N16   1.457420 S    
C11   C27   1.547714 S    
C20   C52   1.194170 T    
C89   C93   1.414617 A    
C32   C52   1.447400 S    
C92   C96   1.414520 A    
C59   C63   1.386886 A    
N10   O67   1.301133 A    
C181  C186  1.405571 A    
C164  C166  1.401952 A    
O4    C4    1.285421 A    
C158  C162  1.385883 A    
O25   C107  1.282004 A    
C85   H37   1.083716 S    
O40   C118  1.275892 A    
C87   C91   1.401142 A    
C43   N15   1.457421 S    
C182  C183  1.397805 A    
O22   Zn6   1.996283 S    
Zn8   O32   2.019322 S    
C9    C37   1.537361 S    
Zn11  O47   2.017967 S    
C71   C75   1.385389 A    
N12   O71   1.301133 A    
O30   C111  1.282130 A    
O17   Zn5   2.018601 S    
C12   C40   1.537335 S    
C16   C48   1.553654 S    
C57   C61   1.385019 A    
N16   O79   1.300261 A    
O25   Zn6   1.997590 S    
O16   Zn4   1.997061 S    
O20   Zn8   2.018559 S    
C133  C137  1.390344 A    
O13   C5    1.282802 A    
O7    Zn4   2.016209 S    
C90   C116  1.450212 S    
C147  H59   1.083707 S    
O26   Zn5   1.997594 S    
O27   Zn8   1.997590 S    
O4    Zn2   2.017999 S    
N3    O53   1.301095 A    
C157  C167  1.400059 A    
O42   C116  1.274179 A    
O38   C116  1.275946 A    
N4    O55   1.301220 A    
O9    C5    1.281709 A    
C25   C169  1.507848 S    
C136  H56   1.083853 S    
C60   C64   1.385035 A    
C190  C191  1.396754 A    
O8    Zn4   2.016256 S    
C19   C51   1.194191 T    
N2    O51   1.301212 A    
O21   C107  1.282098 A    
C93   N1    1.438324 S    
O22   C108  1.282107 A    
O27   C109  1.282004 A    
O3    Zn2   2.018035 S    
N14   O75   1.300154 A    
C25   C29   1.540546 S    
C149  C153  1.414765 A    
C27   C31   1.540536 S    
C28   C32   1.540601 S    
C42   N14   1.457437 S    
C188  H84   1.083330 S    
C34   C38   1.538043 S    
C119  C165  1.453768 S    
O41   Zn10  2.020216 S    
C36   H16   1.110388 S    
C99   C103  1.398156 A    
C131  C144  1.453047 S    
C100  C104  1.398607 A    
O3    C3    1.285630 A    
C183  H80   1.082376 S    
O24   C110  1.282100 A    
C58   C62   1.385028 A    
O36   C114  1.274303 A    
C185  H82   1.082425 S    
C91   C117  1.449862 S    
C95   N3    1.438610 S    
C178  C179  1.396753 A    
C41   C45   1.534779 S    
C21   C53   1.193866 T    
C187  C188  1.405472 A    
C16   C32   1.543679 S    
C43   C47   1.534776 S    
O26   C108  1.282012 A    
C189  C190  1.396464 A    
C123  H47   1.083441 S    
C180  H78   1.077103 S    
C173  C174  1.398628 A    
C9    C13   1.553878 S    
C37   C45   1.538266 S    
C5    C17   1.415038 S    
C184  C185  1.396779 A    
C170  H69   1.083336 S    
O5    C1    1.285476 A    
O39   Zn11  2.016816 S    
C175  C180  1.405517 A    
C148  C156  1.395966 A    
C11   H7    1.110267 S    
C12   C16   1.553862 S    
O28   C110  1.282022 A    
C24   C56   1.193897 T    
C34   C42   1.538310 S    
C161  H65   1.083114 S    
N6    O59   1.301351 A    
C76   C80   1.399233 A    
C169  C174  1.405575 A    
C192  H88   1.077033 S    
C172  C173  1.396779 A    
C125  H49   1.083049 S    
C134  C143  1.394999 A    
C27   C35   1.550276 S    
C171  H70   1.082380 S    
O5    Zn3   2.016209 S    
C190  H86   1.082309 S    
C140  C142  1.416055 A    
O35   C114  1.274051 A    
C178  H76   1.082313 S    
C66   C70   1.402733 A    
C145  C149  1.391154 A    
C147  C151  1.391154 A    
C94   N2    1.438359 S    
O41   C115  1.274175 A    
N1    O50   1.301362 A    
O37   C115  1.275951 A    
C179  C180  1.398623 A    
O20   C106  1.283917 A    
O7    C3    1.285690 A    
N5    O58   1.301024 A    
C32   C44   1.528177 S    
C186  H83   1.077009 S    
C10   C14   1.553832 S    
C95   C99   1.393273 A    
O13   Zn3   1.997023 S    
C96   C100  1.392870 A    
O38   Zn10  2.016810 S    
C97   C101  1.398562 A    
C123  C132  1.399411 A    
C22   C54   1.193913 T    
C138  C141  1.415863 A    
C122  H46   1.083452 S    
C157  C161  1.385887 A    
C72   H28   1.083033 S    
C159  C163  1.385887 A    
C73   H29   1.083403 S    
C75   H31   1.083364 S    
O8    C4    1.285478 A    
O31   C112  1.282142 A    
C25   C33   1.550277 S    
O48   C120  1.276861 A    
O15   Zn4   1.997023 S    
C69   H25   1.083029 S    
C13   C29   1.543647 S    
N9    O65   1.301010 A    
O42   Zn9   2.020216 S    
C159  H63   1.083406 S    
C35   C43   1.538362 S    
C57   H17   1.083475 S    
C68   C72   1.402733 A    
C112  C154  1.449838 S    
C133  H53   1.083818 S    
C9    H5    1.110282 S    
O14   C6    1.282745 A    
C10   H6    1.110402 S    
Zn10  O46   2.017932 S    
C27   C181  1.507830 S    
C135  H55   1.083827 S    
C36   C44   1.538303 S    
C33   H13   1.110328 S    
C71   H27   1.082644 S    
C91   C95   1.414603 A    
C122  C126  1.385237 A    
C76   H32   1.083402 S    
Zn6   O30   2.019322 S    
O10   C6    1.281699 A    
C40   C48   1.538281 S    
C29   C49   1.447490 S    
C13   C45   1.553687 S    
C31   C43   1.528118 S    
C191  H87   1.082458 S    
C60   H20   1.083482 S    
C15   C47   1.553693 S    
C160  C168  1.400055 A    
C120  C166  1.453768 S    
C23   C55   1.193866 T    
C113  C141  1.450389 S    
C106  C130  1.453326 S    
O21   Zn5   1.996279 S    
Zn7   O31   2.019281 S    
C69   C73   1.386718 A    
C152  C154  1.414763 A    
O18   Zn6   2.018559 S    
O17   C105  1.283897 A    
H9    C45   1.110151 S    
C173  H72   1.082430 S    
O46   C119  1.276861 A    
C38   C54   1.445250 S    
C8    C20   1.415088 S    
C151  C154  1.414762 A    
C59   C79   1.398798 A    
C191  C192  1.398619 A    
O35   Zn11  2.018349 S    
C4    C68   1.454349 S    
C135  C144  1.394935 A    
C37   C53   1.445249 S    
C188  C189  1.397830 A    
C34   H14   1.110379 S    
C146  C155  1.395967 A    
O44   Zn11  2.020216 S    
N12   O72   1.301385 A    
C164  H68   1.083119 S    
O47   C120  1.276855 A    
O24   Zn8   1.996283 S    
N16   O80   1.300206 A    
C58   H18   1.083484 S    
C61   C65   1.402008 A    
C185  C186  1.398623 A    
C14   C30   1.543706 S    
O23   C109  1.282098 A    
C63   C67   1.402842 A    
C126  H50   1.083041 S    
C17   C49   1.194186 T    
C187  C192  1.405536 A    
C136  C144  1.394904 A    
C111  C153  1.449838 S    
N4    O56   1.301352 A    
C82   C102  1.396766 A    
C99   H43   1.084052 S    
C184  H81   1.082331 S    
C6    C18   1.415122 S    
C15   C31   1.543636 S    
C30   C50   1.447391 S    
C139  C142  1.415941 A    
O39   C117  1.275756 A    
N7    O61   1.301423 A    
C148  C152  1.391158 A    
O12   Zn2   1.997334 S    
C150  C153  1.414762 A    
C57   C77   1.399418 A    
C39   C47   1.538260 S    
C10   C38   1.537332 S    
N2    O52   1.301355 A    
N13   O74   1.300251 A    
C1    C65   1.454312 S    
O19   C106  1.283921 A    
C162  H66   1.083117 S    
C3    C67   1.455151 S    
C44   C48   1.534777 S    
O1    C1    1.285406 A    
N14   O76   1.300257 A    
C171  C172  1.396435 A    
H10   C46   1.110159 S    
C134  C138  1.390333 A    
C29   C41   1.528124 S    
C96   N4    1.438369 S    
C121  H45   1.083440 S    
C31   C51   1.447492 S    
C15   H3    1.110142 S    
C160  C164  1.385880 A    
C145  H57   1.083708 S    
Zn9   O45   2.017967 S    
C82   C86   1.384044 A    
C78   C102  1.453255 S    
N15   O77   1.300186 A    
C35   H15   1.110319 S    
C58   C78   1.399412 A    
C39   C55   1.445252 S    
C9    C25   1.547718 S    
C22   C108  1.415300 S    
C62   C66   1.402026 A    
C12   C28   1.547735 S    
C97   H41   1.083782 S    
C124  H48   1.083449 S    
C151  N11   1.438888 S    
C98   C102  1.398578 A    
C13   H1    1.110154 S    
C157  H61   1.083407 S    
C72   C76   1.386713 A    
C75   C79   1.398872 A    
C127  H51   1.083046 S    
C89   C115  1.450220 S    
C73   C77   1.399217 A    
O6    C2    1.285472 A    
C139  N7    1.438746 S    
N10   O68   1.301386 A    
C121  C131  1.399382 A    
C81   C85   1.384083 A    
C77   C101  1.453263 S    
C121  C125  1.385228 A    
C86   C90   1.401013 A    
N11   O69   1.301009 A    
C84   C88   1.384047 A    
C122  C131  1.399370 A    
C92   C118  1.450135 S    
C33   C37   1.538010 S    
C158  C167  1.400056 A    
N6    O60   1.301008 A    
C2    C66   1.454318 S    
O2    Zn1   2.017999 S    
C35   C39   1.538002 S    
O10   Zn1   1.997334 S    
C93   C97   1.392843 A    
C133  C143  1.395017 A    
O43   C117  1.274213 A    
O45   C119  1.276855 A    
C28   C36   1.550202 S    
C88   C92   1.400975 A    
C42   C46   1.534800 S    
C30   C42   1.528182 S    
O18   C105  1.283915 A    
C135  C139  1.390305 A    
C26   C30   1.540601 S    
C38   C46   1.538279 S    
N1    O49   1.301231 A    
O15   C7    1.282801 A    
C181  C182  1.405448 A    
H11   C47   1.110140 S    
C88   H40   1.083675 S    
C85   C89   1.400918 A    
N5    O57   1.301318 A    
O40   Zn12  2.016810 S    
C87   H39   1.083681 S    
C152  N12   1.438839 S    
O43   Zn12  2.020216 S    
C174  H73   1.077013 S    
C81   C101  1.396807 A    
C114  C142  1.450587 S    
C182  H79   1.083336 S    
C146  C150  1.391154 A    
C159  C168  1.400060 A    
C100  H44   1.083776 S    
C33   C41   1.538365 S    
O19   Zn7   2.018601 S    
C128  C130  1.402188 A    
C64   C68   1.402029 A    
C26   C34   1.550197 S    
O16   C8    1.282757 A    
N9    O66   1.301413 A    
C124  C132  1.399413 A    
N8    O64   1.300951 A    
O33   C113  1.274112 A    
O28   Zn7   1.997594 S    
Zn5   O29   2.019281 S    
O33   Zn9   2.018349 S    
C36   C40   1.538028 S    
C60   C80   1.399421 A    
O11   C7    1.281713 A    
C82   H34   1.083557 S    
O12   C8    1.281700 A    
O1    Zn1   2.018035 S    
O9    Zn1   1.997369 S    
C132  C143  1.453189 S    
C40   C56   1.445261 S    
C172  H71   1.082337 S    
Zn12  O48   2.017932 S    
C140  N8    1.438812 S    
C61   H21   1.083045 S    
N7    O62   1.301021 A    
O23   Zn7   1.996279 S    
C137  N5    1.438842 S    
C16   H4    1.110204 S    
C156  C167  1.455571 S    
C41   N13   1.457431 S    
O11   Zn2   1.997369 S    
C84   C104  1.396791 A    
O44   C118  1.274191 A    
C128  H52   1.083043 S    
C162  C165  1.401953 A    
C74   H30   1.083405 S    
C127  C130  1.402177 A    
N8    O63   1.301437 A    
C137  C141  1.415849 A    
C7    C19   1.415027 S    
O6    Zn3   2.016256 S    
C148  H60   1.083715 S    
O34   C113  1.274125 A    
C12   H8    1.110376 S    
C26   C175  1.507888 S    
C177  H75   1.082279 S    
C70   H26   1.083036 S    
C125  C129  1.402178 A    
N15   O78   1.300247 A    
C90   C94   1.414567 A    
C163  H67   1.083113 S    
C28   C187  1.507881 S    
O2    C2    1.285415 A    
C183  C184  1.396436 A    
C134  H54   1.083830 S    
C176  H74   1.083340 S    
C83   C103  1.396450 A    
O29   C111  1.282142 A    
C14   H2    1.110197 S    
O14   Zn3   1.997061 S    
C160  H64   1.083397 S    
C24   C110  1.415297 S    
C146  H58   1.083717 S    
C136  C140  1.390289 A    
C145  C155  1.395971 A    
C65   C69   1.402736 A    
C123  C127  1.385255 A    
C163  C166  1.401958 A    
C63   H23   1.082780 S    
H12   C48   1.110153 S    
C80   C104  1.453299 S    
C14   C46   1.553661 S    
C170  C171  1.397816 A    
N11   O70   1.301412 A    
C10   C26   1.547749 S    
C83   C87   1.384282 A    
C175  C176  1.405473 A    
C189  H85   1.082308 S    
C62   H22   1.083042 S    
C11   C15   1.553880 S    
C23   C109  1.415322 S    
C177  C178  1.396477 A    
C124  C128  1.385267 A    
C155  C168  1.455571 S    
C98   H42   1.083778 S    
C126  C129  1.402201 A    
C79   C103  1.452509 S    
C70   C74   1.386706 A    
C105  C129  1.453274 S    
C147  C156  1.395972 A    
C158  H62   1.083391 S    
C161  C165  1.401956 A    
C150  N10   1.438843 S    
C67   C71   1.402363 A    
C169  C170  1.405450 A    
C74   C78   1.399218 A    
C11   C39   1.537358 S    
