data_mof_unit_pretest_382.cif
_audit_creation_date              2012-12-10T17:55:03-0500
_audit_creation_method            fapswitch 2.2
_symmetry_space_group_name_H-M    P1
_symmetry_Int_Tables_number       1
_space_group_crystal_system       triclinic
_cell_length_a                    8.775651
_cell_length_b                    10.858369
_cell_length_c                    9.514894
_cell_angle_alpha                 90.587652
_cell_angle_beta                  97.374088
_cell_angle_gamma                 89.828409
_cell_volume                      899.119831768

loop_
_atom_site_label
_atom_site_type_symbol
_atom_type_description
_atom_site_fract_x
_atom_site_fract_y
_atom_site_fract_z
_atom_type_partial_charge
C1    C     C_R   0.499011 0.262151 0.498715 0.846317
C2    C     C_R   0.500995 0.737849 0.501286 0.846343
C3    C     C_R   0.204374 0.497628 0.464679 0.860721
C4    C     C_R   0.795626 0.502373 0.535322 0.860680
C5    C     C_2   0.041299 0.476443 0.450242 -0.261217
C6    C     C_2   0.958700 0.523569 0.549759 -0.261243
C7    C     C_R   0.451243 0.060309 0.371526 0.258703
C8    C     C_R   0.548779 0.939692 0.628474 0.258700
C9    C     C_R   0.451016 0.932589 0.376984 -0.290885
C10   C     C_R   0.549009 0.067413 0.623016 -0.290876
C11   C     C_R   0.500249 0.871673 0.503570 -0.081003
C12   C     C_R   0.499771 0.128328 0.496430 -0.080988
C13   C     C_R   0.392758 0.434498 0.060906 0.010282
C14   C     C_R   0.607241 0.565502 0.939094 0.010282
C15   C     C_R   0.392864 0.434432 0.912099 -0.014675
C16   C     C_R   0.607136 0.565568 0.087901 -0.014653
Cu1   Cu    Cu3+1 0.500000 0.500020 0.640660 0.989832
Cu2   Cu    Cu3+1 0.500000 0.499980 0.359340 0.989825
H1    H     H_    0.411810 0.881021 0.281017 0.172017
H2    H     H_    0.588213 0.118980 0.718986 0.172012
H3    H     H_    0.307323 0.381485 0.106162 0.173723
H4    H     H_    0.692674 0.618517 0.893838 0.173748
H5    H     H_    0.307353 0.381513 0.845302 0.134786
H6    H     H_    0.692647 0.618487 0.154698 0.134798
N1    N     N_R   0.500040 0.500030 0.852080 -0.173168
N2    N     N_R   0.499960 0.499970 0.147920 -0.173170
O1    O     O_R   0.499990 0.319660 0.618740 -0.605912
O2    O     O_R   0.500010 0.680340 0.381260 -0.605911
O3    O     O_R   0.499990 0.319630 0.381170 -0.547952
O4    O     O_R   0.500010 0.680370 0.618830 -0.547937
O5    O     O_R   0.274840 0.500010 0.591370 -0.580839
O6    O     O_R   0.725160 0.499990 0.408630 -0.580858
O7    O     O_R   0.274830 0.499980 0.353800 -0.561423
O8    O     O_R   0.725170 0.500020 0.646200 -0.561407
C17   C     C_2   0.981293 0.380126 0.344560 0.856612
O9    O     O_2   0.013162 0.383948 0.223274 -0.592071
O10   O     O_R   0.893492 0.282760 0.385801 -0.768023
H7    H     H_    0.865289 0.220753 0.306510 0.321789
C18   C     C_2   0.018701 0.619906 0.655419 0.856619
O11   O     O_2   0.986761 0.616151 0.776685 -0.592083
O12   O     O_R   0.106575 0.717223 0.614175 -0.768015
H8    H     H_    0.134756 0.779260 0.693437 0.321789
N3    N     N_2   0.397819 0.118644 0.241118 -0.413548
H9    H     H_    0.296199 0.081736 0.192139 0.250672
C19   C     C_3   0.512253 0.125850 0.144695 -0.660632
H10   H     H_    0.553801 0.032351 0.119988 0.210455
H11   H     H_    0.611128 0.182409 0.191835 0.256128
H12   H     H_    0.461464 0.169591 0.044487 0.209282
N4    N     N_2   0.602187 0.881358 0.758884 -0.413545
H13   H     H_    0.703805 0.918263 0.807872 0.250681
C20   C     C_3   0.487740 0.874158 0.855293 -0.660648
H14   H     H_    0.446204 0.967661 0.880008 0.210453
H15   H     H_    0.538515 0.830403 0.955494 0.209299
H16   H     H_    0.388863 0.817611 0.808134 0.256133

loop_
_geom_bond_atom_site_label_1
_geom_bond_atom_site_label_2
_ccdc_geom_bond_type
N3    H9    S    
O10   H7    S    
C7    N3    S    
C9    C11   A    
O12   H8    S    
C17   O9    D    
Cu2   N2    S    
C2    O4    A    
C20   H16   S    
Cu1   N1    S    
C14   H4    S    
C15   H5    S    
Cu1   Cu2   S    
C3    C5    S    
C13   H3    S    
C16   H6    S    
Cu2   O3    S    
C19   H10   S    
C3    O5    A    
Cu1   O4    S    
N3    C19   S    
C4    O6    A    
C1    C12   S    
C10   C12   A    
C8    C11   A    
C2    C11   S    
C5    C17   S    
C1    O3    A    
C17   O10   S    
C4    O8    A    
C13   C15   A    
C14   N1    A    
C16   N2    A    
C5    C6    D    
Cu1   O5    S    
Cu2   O7    S    
C14   C16   A    
C7    C12   A    
C15   N1    A    
C4    C6    S    
Cu2   O6    S    
Cu1   O8    S    
C13   N2    A    
C20   H14   S    
Cu1   O1    S    
C7    C9    A    
Cu2   O2    S    
C18   O12   S    
N4    H13   S    
C19   H11   S    
C18   O11   D    
C1    O1    A    
C3    O7    A    
C6    C18   S    
C2    O2    A    
C19   H12   S    
C20   H15   S    
C8    N4    S    
C9    H1    S    
C8    C10   A    
C10   H2    S    
N4    C20   S    
