data_mof_unit_pretest_52.cif
_audit_creation_date              2012-12-10T17:19:41-0500
_audit_creation_method            fapswitch 2.2
_symmetry_space_group_name_H-M    P1
_symmetry_Int_Tables_number       1
_space_group_crystal_system       triclinic
_cell_length_a                    21.821405
_cell_length_b                    21.821492
_cell_length_c                    23.450972
_cell_angle_alpha                 90.268489
_cell_angle_beta                  89.677515
_cell_angle_gamma                 89.554198
_cell_volume                      11166.1412085

loop_
_atom_site_label
_atom_site_type_symbol
_atom_type_description
_atom_site_fract_x
_atom_site_fract_y
_atom_site_fract_z
_atom_type_partial_charge
C1    C     C_R   0.380544 0.000261 0.499623 0.816931
C2    C     C_R   0.000252 0.380536 0.500402 0.818024
C3    C     C_R   0.619420 0.999740 0.500927 0.819705
C4    C     C_R   0.999730 0.619420 0.499294 0.820058
C5    C     C_R   0.880545 0.500260 0.999549 0.819164
C6    C     C_R   0.500270 0.880550 0.000643 0.817081
C7    C     C_R   0.119417 0.499735 0.000942 0.822359
C8    C     C_R   0.499752 0.119413 0.999048 0.822604
C9    C     C_R   0.283971 0.011070 0.448175 -0.022333
C10   C     C_R   0.993951 0.283131 0.448928 -0.026922
C11   C     C_R   0.716339 0.008174 0.449621 -0.022845
C12   C     C_R   0.991526 0.715567 0.446755 -0.028057
C13   C     C_R   0.715616 0.992028 0.553416 -0.030412
C14   C     C_R   0.010276 0.283917 0.552004 -0.021428
C15   C     C_R   0.283141 0.992647 0.550953 -0.025735
C16   C     C_R   0.008813 0.716341 0.550392 -0.022272
C17   C     C_R   0.783993 0.510871 0.948039 -0.022029
C18   C     C_R   0.493464 0.783278 0.949121 -0.016116
C19   C     C_R   0.216331 0.507611 0.949563 -0.029607
C20   C     C_R   0.492347 0.215669 0.946605 -0.029274
C21   C     C_R   0.215617 0.492091 0.053444 -0.028869
C22   C     C_R   0.510919 0.783868 0.052009 -0.029628
C23   C     C_R   0.783133 0.493456 0.050982 -0.026577
C24   C     C_R   0.508052 0.216233 0.050439 -0.023303
C25   C     C_R   0.188016 0.001743 0.499435 -0.039551
C26   C     C_R   0.001943 0.188001 0.500602 -0.041649
C27   C     C_R   0.812248 0.000737 0.501532 -0.061368
C28   C     C_R   0.000731 0.812221 0.498412 -0.061657
C29   C     C_R   0.688026 0.502023 0.999391 -0.041692
C30   C     C_R   0.502020 0.688020 0.000523 -0.039168
C31   C     C_R   0.312239 0.500403 0.001495 -0.055469
C32   C     C_R   0.500725 0.312229 0.998576 -0.061936
C33   C     C_R   0.315123 0.001064 0.499531 0.015980
C34   C     C_R   0.001033 0.315100 0.500523 0.013130
C35   C     C_R   0.684980 0.999105 0.501261 0.004145
C36   C     C_R   0.999058 0.684957 0.498907 0.002919
C37   C     C_R   0.815121 0.501083 0.999442 0.012127
C38   C     C_R   0.501144 0.815120 0.000678 0.001644
C39   C     C_R   0.184967 0.499049 0.001276 0.000344
C40   C     C_R   0.499181 0.184961 0.998755 0.002893
C41   C     C_R   0.000618 0.120974 0.500204 0.956528
C42   C     C_R   0.879126 0.999788 0.500387 0.973830
C43   C     C_R   0.999664 0.879119 0.499610 0.974615
C44   C     C_R   0.120981 0.000642 0.499789 0.957238
C45   C     C_R   0.500643 0.620984 0.000178 0.958725
C46   C     C_R   0.379125 0.499685 0.000382 0.973667
C47   C     C_R   0.499789 0.379119 0.999648 0.972677
C48   C     C_R   0.620985 0.500680 0.999786 0.956696
C49   C     C_R   0.498874 0.999689 0.390799 0.838744
C50   C     C_R   0.000202 0.499379 0.390793 0.834473
C51   C     C_R   0.499217 0.000161 0.609207 0.835485
C52   C     C_R   0.999661 0.498991 0.609206 0.838592
C53   C     C_R   0.998853 0.499698 0.890801 0.840105
C54   C     C_R   0.500192 0.999293 0.890792 0.836450
C55   C     C_R   0.999333 0.500182 0.109207 0.836097
C56   C     C_R   0.499662 0.998884 0.109203 0.839397
C57   C     C_1   0.496602 0.998247 0.330552 -0.027126
C58   C     C_1   0.000638 0.498915 0.330531 -0.028094
C59   C     C_1   0.498471 0.000455 0.669472 -0.029916
C60   C     C_1   0.998150 0.496959 0.669461 -0.028162
C61   C     C_1   0.996535 0.498323 0.830557 -0.027556
C62   C     C_1   0.500550 0.998613 0.830527 -0.034596
C63   C     C_1   0.998800 0.500603 0.169468 -0.027793
C64   C     C_1   0.498161 0.996664 0.169454 -0.030928
C65   C     C_1   0.495633 0.996486 0.279680 0.214356
C66   C     C_1   0.000195 0.499101 0.279655 0.256943
C67   C     C_1   0.498592 0.999899 0.720346 0.237044
C68   C     C_1   0.996336 0.496076 0.720334 0.214476
C69   C     C_1   0.995552 0.496703 0.779683 0.216068
C70   C     C_1   0.499944 0.998690 0.779652 0.232911
C71   C     C_1   0.998975 0.500231 0.220345 0.257196
C72   C     C_1   0.496377 0.995730 0.220329 0.212995
C73   C     C_R   0.313484 0.030436 0.397882 -0.305445
C74   C     C_R   0.977104 0.312099 0.397903 -0.300529
C75   C     C_R   0.684713 0.012231 0.397346 -0.263053
C76   C     C_R   0.988062 0.682910 0.394577 -0.259514
C77   C     C_R   0.682976 0.988989 0.605647 -0.260752
C78   C     C_R   0.029066 0.313355 0.602491 -0.305573
C79   C     C_R   0.312042 0.974247 0.601565 -0.311228
C80   C     C_R   0.013735 0.684821 0.602717 -0.261963
C81   C     C_R   0.813523 0.530075 0.897687 -0.305568
C82   C     C_R   0.475919 0.812489 0.898452 -0.288978
C83   C     C_R   0.184756 0.511259 0.897237 -0.273175
C84   C     C_R   0.489652 0.183141 0.894322 -0.260501
C85   C     C_R   0.183008 0.489263 0.105703 -0.257108
C86   C     C_R   0.529987 0.813296 0.102407 -0.315642
C87   C     C_R   0.812115 0.476076 0.101847 -0.298794
C88   C     C_R   0.512013 0.184478 0.102670 -0.263086
C89   C     C_R   0.281009 0.035770 0.346703 0.342856
C90   C     C_R   0.976270 0.279632 0.346280 0.326001
C91   C     C_R   0.715319 0.023370 0.346137 0.275088
C92   C     C_R   0.984333 0.713198 0.342382 0.312255
C93   C     C_R   0.713248 0.985347 0.657826 0.321694
C94   C     C_R   0.034289 0.280656 0.653594 0.347679
C95   C     C_R   0.279222 0.970948 0.652915 0.311583
C96   C     C_R   0.026042 0.715565 0.653632 0.271723
C97   C     C_R   0.781020 0.535430 0.846528 0.346192
C98   C     C_R   0.474021 0.780279 0.846802 0.274778
C99   C     C_R   0.215474 0.521747 0.845943 0.263759
C100  C     C_R   0.486055 0.213523 0.842163 0.314054
C101  C     C_R   0.213302 0.485507 0.157872 0.316035
C102  C     C_R   0.535229 0.780682 0.153539 0.343583
C103  C     C_R   0.779679 0.474683 0.153488 0.324413
C104  C     C_R   0.522877 0.214961 0.153944 0.276471
C105  C     C_R   0.221674 0.010023 0.343418 0.204129
C106  C     C_R   0.003483 0.220412 0.343805 0.201214
C107  C     C_R   0.778893 0.032821 0.347030 0.179861
C108  C     C_R   0.981052 0.777446 0.342361 0.177122
C109  C     C_R   0.777490 0.981752 0.657813 0.175680
C110  C     C_R   0.008874 0.221149 0.656580 0.216250
C111  C     C_R   0.219707 0.997347 0.655967 0.279326
C112  C     C_R   0.035663 0.779115 0.652320 0.176515
C113  C     C_R   0.721627 0.509753 0.843307 0.206728
C114  C     C_R   0.500946 0.720987 0.843663 0.219310
C115  C     C_R   0.279065 0.531123 0.846830 0.167839
C116  C     C_R   0.482042 0.277757 0.842263 0.175117
C117  C     C_R   0.277536 0.481597 0.157825 0.184607
C118  C     C_R   0.509682 0.721240 0.156639 0.172491
C119  C     C_R   0.720419 0.501754 0.156216 0.196308
C120  C     C_R   0.532064 0.278569 0.153196 0.178258
C121  C     C_R   0.196829 0.982502 0.392906 0.322225
C122  C     C_R   0.026564 0.194945 0.395056 0.344081
C123  C     C_R   0.807383 0.041680 0.400172 0.346456
C124  C     C_R   0.967575 0.807656 0.394048 0.337121
C125  C     C_R   0.807663 0.968052 0.606119 0.336713
C126  C     C_R   0.981687 0.196452 0.606938 0.317950
C127  C     C_R   0.194663 0.022860 0.605629 0.325971
C128  C     C_R   0.043429 0.807352 0.598925 0.339993
C129  C     C_R   0.696703 0.482459 0.892896 0.320853
C130  C     C_R   0.524849 0.695149 0.894460 0.345199
C131  C     C_R   0.307425 0.540527 0.899928 0.283300
C132  C     C_R   0.468149 0.307705 0.894014 0.336447
C133  C     C_R   0.307626 0.467865 0.106094 0.334585
C134  C     C_R   0.482428 0.696478 0.107027 0.270308
C135  C     C_R   0.694947 0.525445 0.105225 0.343467
C136  C     C_R   0.541114 0.307245 0.100133 0.347123
C137  C     C_R   0.221493 0.998718 0.446807 -0.066218
C138  C     C_R   0.007252 0.220661 0.448114 -0.068907
C139  C     C_R   0.779705 0.017053 0.450631 -0.078141
C140  C     C_R   0.985350 0.779625 0.446855 -0.072349
C141  C     C_R   0.779657 0.985738 0.553259 -0.072518
C142  C     C_R   0.998096 0.221398 0.553190 -0.066551
C143  C     C_R   0.220632 0.005782 0.552028 -0.072294
C144  C     C_R   0.017722 0.779673 0.549086 -0.077840
C145  C     C_R   0.721485 0.498653 0.946753 -0.065665
C146  C     C_R   0.506670 0.720773 0.947970 -0.054583
C147  C     C_R   0.279701 0.516335 0.950509 -0.073377
C148  C     C_R   0.485929 0.279674 0.946817 -0.072454
C149  C     C_R   0.279638 0.485621 0.053262 -0.070773
C150  C     C_R   0.498709 0.721365 0.053207 -0.050346
C151  C     C_R   0.720664 0.506776 0.051939 -0.068656
C152  C     C_R   0.516842 0.279626 0.049525 -0.077478
H1    H     H_    0.360951 0.044093 0.398942 0.203571
H2    H     H_    0.962482 0.359517 0.398524 0.202907
H3    H     H_    0.635654 0.005854 0.395666 0.182122
H4    H     H_    0.990291 0.633396 0.393672 0.177924
H5    H     H_    0.633465 0.991381 0.606588 0.179314
H6    H     H_    0.042571 0.360877 0.601599 0.202584
H7    H     H_    0.359550 0.959955 0.600723 0.206334
H8    H     H_    0.007353 0.635773 0.604618 0.181453
H9    H     H_    0.861011 0.543681 0.898697 0.203012
H10   H     H_    0.461459 0.859940 0.899390 0.200413
H11   H     H_    0.135679 0.504997 0.895583 0.185482
H12   H     H_    0.492265 0.133640 0.893332 0.178377
H13   H     H_    0.133505 0.491847 0.106666 0.176945
H14   H     H_    0.543526 0.860807 0.101458 0.205489
H15   H     H_    0.859544 0.461507 0.101089 0.203264
H16   H     H_    0.505777 0.135396 0.104273 0.182289
O1    O     O_R   0.408370 0.051730 0.500010 -0.602800
O2    O     O_R   0.948270 0.408370 0.500010 -0.600495
O3    O     O_R   0.591630 0.948270 0.500010 -0.598511
O4    O     O_R   0.051730 0.591630 0.500010 -0.592888
O5    O     O_R   0.591630 0.051730 0.499990 -0.593196
O6    O     O_R   0.051730 0.408370 0.499990 -0.601367
O7    O     O_R   0.408370 0.948270 0.499990 -0.598386
O8    O     O_R   0.948270 0.591630 0.499990 -0.598547
O9    O     O_R   0.908370 0.551730 0.000010 -0.601880
O10   O     O_R   0.448270 0.908370 0.000010 -0.604478
O11   O     O_R   0.091630 0.448270 0.000010 -0.596893
O12   O     O_R   0.551730 0.091630 0.000010 -0.592812
O13   O     O_R   0.091630 0.551730 0.999990 -0.598920
O14   O     O_R   0.551730 0.908370 0.999990 -0.601701
O15   O     O_R   0.908370 0.448270 0.999990 -0.600927
O16   O     O_R   0.448270 0.091630 0.999990 -0.598672
O17   O     O_R   0.499980 0.051730 0.417240 -0.570598
O18   O     O_R   0.948270 0.499980 0.417240 -0.582073
O19   O     O_R   0.500020 0.948270 0.417240 -0.601630
O20   O     O_R   0.051730 0.500020 0.417240 -0.589475
O21   O     O_R   0.500020 0.051730 0.582760 -0.589281
O22   O     O_R   0.051730 0.499980 0.582760 -0.570220
O23   O     O_R   0.499980 0.948270 0.582760 -0.581634
O24   O     O_R   0.948270 0.500020 0.582760 -0.601629
O25   O     O_R   0.999980 0.551730 0.917240 -0.573346
O26   O     O_R   0.448270 0.999980 0.917240 -0.582100
O27   O     O_R   0.000020 0.448270 0.917240 -0.600825
O28   O     O_R   0.551730 0.000020 0.917240 -0.591285
O29   O     O_R   0.000020 0.551730 0.082760 -0.589496
O30   O     O_R   0.551730 0.999980 0.082760 -0.569238
O31   O     O_R   0.999980 0.448270 0.082760 -0.582204
O32   O     O_R   0.448270 0.000020 0.082760 -0.604541
O33   O     O_R   0.999980 0.091600 0.546760 -0.577854
O34   O     O_R   0.908400 0.999980 0.546760 -0.576523
O35   O     O_R   0.000020 0.908400 0.546760 -0.570943
O36   O     O_R   0.091600 0.000020 0.546760 -0.566473
O37   O     O_R   0.000020 0.091600 0.453240 -0.565567
O38   O     O_R   0.091600 0.999980 0.453240 -0.575960
O39   O     O_R   0.999980 0.908400 0.453240 -0.576156
O40   O     O_R   0.908400 0.000020 0.453240 -0.568755
O41   O     O_R   0.499980 0.591600 0.046760 -0.576857
O42   O     O_R   0.408400 0.499980 0.046760 -0.580216
O43   O     O_R   0.500020 0.408400 0.046760 -0.568013
O44   O     O_R   0.591600 0.500020 0.046760 -0.566182
O45   O     O_R   0.500020 0.591600 0.953240 -0.567839
O46   O     O_R   0.591600 0.499980 0.953240 -0.576746
O47   O     O_R   0.499980 0.408400 0.953240 -0.577483
O48   O     O_R   0.408400 0.500020 0.953240 -0.566857
Zn1   Zn    Zn3+2 0.500000 0.069080 0.500000 1.139968
Zn2   Zn    Zn3+2 0.930920 0.500000 0.500000 1.124390
Zn3   Zn    Zn3+2 0.500000 0.930920 0.500000 1.129980
Zn4   Zn    Zn3+2 0.069080 0.500000 0.500000 1.141773
Zn5   Zn    Zn3+2 0.000000 0.569080 0.000000 1.130987
Zn6   Zn    Zn3+2 0.430920 0.000000 0.000000 1.111696
Zn7   Zn    Zn3+2 0.000000 0.430920 0.000000 1.122886
Zn8   Zn    Zn3+2 0.569080 0.000000 0.000000 1.136767
Zn9   Zn    Zn3+2 1.000000 0.000000 0.562420 1.324966
Zn10  Zn    Zn3+2 0.000000 0.000000 0.437580 1.324541
Zn11  Zn    Zn3+2 0.500000 0.500000 0.062420 1.323904
Zn12  Zn    Zn3+2 0.500000 0.500000 0.937580 1.324443
S1    S     S_3+6 0.316331 0.936415 0.711647 0.140833
O49   O     O_2   0.382122 0.922758 0.697025 -0.253379
O50   O     O_2   0.313867 0.978434 0.762609 -0.208901
O51   O     O_3   0.281513 0.869928 0.726882 -0.433101
H17   H     H_    0.287332 0.864104 0.768366 0.424060
S2    S     S_3+6 0.069759 0.317525 0.712210 0.099255
O52   O     O_2   0.082389 0.383306 0.698139 -0.290861
O53   O     O_2   0.029144 0.315180 0.764083 -0.213224
O54   O     O_3   0.136837 0.282401 0.726047 -0.485513
H18   H     H_    0.153813 0.304862 0.759115 0.406897
S3    S     S_3+6 0.667559 0.977163 0.720011 0.072131
O55   O     O_2   0.642314 0.038911 0.736867 -0.234590
O56   O     O_2   0.615231 0.935411 0.706197 -0.360814
O57   O     O_3   0.705444 0.947099 0.775580 -0.411273
H19   H     H_    0.707476 0.902483 0.767695 0.390377
S4    S     S_3+6 0.038156 0.670265 0.715029 0.110779
O58   O     O_2   0.977528 0.658314 0.743291 -0.207473
O59   O     O_2   0.066263 0.610263 0.696805 -0.282167
O60   O     O_3   0.085363 0.703205 0.762305 -0.400593
H20   H     H_    0.125971 0.703296 0.743226 0.373594
S5    S     S_3+6 0.669660 0.033550 0.284686 0.111919
O61   O     O_2   0.655779 0.971837 0.259556 -0.209089
O62   O     O_2   0.610638 0.064013 0.302467 -0.285878
O63   O     O_3   0.702732 0.077283 0.234597 -0.387054
H21   H     H_    0.701145 0.119457 0.250360 0.376885
S6    S     S_3+6 0.944282 0.317153 0.286499 0.103989
O64   O     O_2   0.928114 0.382258 0.301516 -0.286509
O65   O     O_2   0.989294 0.316765 0.237726 -0.183735
O66   O     O_3   0.879677 0.281247 0.267232 -0.512802
H22   H     H_    0.874195 0.291165 0.226395 0.430783
S7    S     S_3+6 0.318084 0.071555 0.288299 0.093993
O67   O     O_2   0.383736 0.084376 0.302670 -0.288962
O68   O     O_2   0.316194 0.031077 0.236350 -0.217238
O69   O     O_3   0.282812 0.138551 0.274414 -0.489762
H23   H     H_    0.305365 0.155664 0.241428 0.407760
S8    S     S_3+6 0.975780 0.667653 0.280207 0.081679
O70   O     O_2   0.037483 0.642730 0.262758 -0.240032
O71   O     O_2   0.934328 0.615103 0.294181 -0.321751
O72   O     O_3   0.945101 0.705745 0.225044 -0.408210
H24   H     H_    0.900659 0.708285 0.233694 0.393695
S9    S     S_3+6 0.817337 0.442313 0.213033 0.102994
O73   O     O_2   0.882588 0.426806 0.197923 -0.286368
O74   O     O_2   0.816551 0.486771 0.262202 -0.183168
O75   O     O_3   0.781908 0.377228 0.231743 -0.515366
H25   H     H_    0.791550 0.371550 0.272610 0.430862
S10   S     S_3+6 0.570686 0.817677 0.212111 0.092336
O76   O     O_2   0.583348 0.883442 0.197981 -0.290801
O77   O     O_2   0.530037 0.815412 0.263967 -0.218724
O78   O     O_3   0.637753 0.782569 0.226028 -0.486501
H26   H     H_    0.654632 0.804972 0.259173 0.407595
S11   S     S_3+6 0.167564 0.477561 0.220066 0.081174
O79   O     O_2   0.142035 0.539328 0.236491 -0.238418
O80   O     O_2   0.115428 0.435505 0.206397 -0.323956
O81   O     O_3   0.205388 0.448049 0.275925 -0.409632
H27   H     H_    0.207116 0.403316 0.268599 0.394183
S12   S     S_3+6 0.532966 0.169103 0.215301 0.111766
O82   O     O_2   0.471147 0.154382 0.239802 -0.210200
O83   O     O_2   0.564262 0.110527 0.197491 -0.284743
O84   O     O_3   0.575749 0.202298 0.265962 -0.386706
H28   H     H_    0.618205 0.200726 0.250837 0.377458
S13   S     S_3+6 0.169897 0.531093 0.784346 0.107009
O85   O     O_2   0.155352 0.468986 0.760454 -0.206309
O86   O     O_2   0.111223 0.562502 0.801695 -0.287232
O87   O     O_3   0.203211 0.573361 0.733314 -0.385267
H29   H     H_    0.201483 0.615976 0.747988 0.375549
S14   S     S_3+6 0.440881 0.818277 0.787839 0.125642
O88   O     O_2   0.382876 0.786280 0.771442 -0.168775
O89   O     O_2   0.424853 0.883282 0.803462 -0.303913
O90   O     O_3   0.489327 0.818321 0.731855 -0.409115
H30   H     H_    0.525095 0.842153 0.744932 0.367106
S15   S     S_3+6 0.818040 0.571286 0.788083 0.093747
O91   O     O_2   0.883687 0.584394 0.802308 -0.294151
O92   O     O_2   0.816199 0.530743 0.736174 -0.213759
O93   O     O_3   0.782537 0.638154 0.774167 -0.490305
H31   H     H_    0.804733 0.655105 0.740900 0.406692
S16   S     S_3+6 0.478435 0.167849 0.779935 0.081914
O94   O     O_2   0.540264 0.142235 0.763802 -0.237442
O95   O     O_2   0.436240 0.115757 0.793452 -0.323673
O96   O     O_3   0.449320 0.205708 0.723910 -0.408430
H32   H     H_    0.404514 0.207251 0.730899 0.393570
S17   S     S_3+6 0.179805 0.007703 0.278386 0.209128
O97   O     O_2   0.208633 0.961277 0.238838 -0.143129
O98   O     O_2   0.114406 0.989812 0.289228 -0.163064
O99   O     O_3   0.180043 0.076114 0.245846 -0.420719
H33   H     H_    0.150474 0.101675 0.267707 0.411244
S18   S     S_3+6 0.012923 0.179900 0.277884 0.191968
O100  O     O_2   0.067840 0.204679 0.247006 -0.155721
O101  O     O_2   0.022496 0.112578 0.287726 -0.184741
O102  O     O_3   0.951722 0.187539 0.235491 -0.425413
H34   H     H_    0.918588 0.165738 0.255757 0.408574
S19   S     S_3+6 0.823578 0.033661 0.283395 0.170675
O103  O     O_2   0.823634 0.097276 0.259277 -0.199090
O104  O     O_2   0.888575 0.014700 0.295150 -0.173156
O105  O     O_3   0.794665 0.985061 0.234812 -0.403660
H35   H     H_    0.796055 0.944364 0.253330 0.361322
S20   S     S_3+6 0.992547 0.821415 0.279576 0.184547
O106  O     O_2   0.932991 0.828881 0.248438 -0.155374
O107  O     O_2   0.015886 0.883944 0.294717 -0.169427
O108  O     O_3   0.044051 0.786848 0.236318 -0.414373
H36   H     H_    0.081720 0.783195 0.259475 0.355696
S21   S     S_3+6 0.821443 0.992952 0.720614 0.183907
O109  O     O_2   0.828190 0.933411 0.751952 -0.158006
O110  O     O_2   0.884267 0.015585 0.705529 -0.169110
O111  O     O_3   0.787291 0.044932 0.763647 -0.414005
H37   H     H_    0.783908 0.082505 0.740295 0.354909
S22   S     S_3+6 0.006668 0.178811 0.721380 0.203812
O112  O     O_2   0.960196 0.207218 0.761156 -0.139592
O113  O     O_2   0.988856 0.113462 0.710198 -0.173062
O114  O     O_3   0.075188 0.178976 0.753740 -0.433522
H38   H     H_    0.098038 0.143822 0.737052 0.412107
S23   S     S_3+6 0.177874 0.002058 0.721533 0.178294
O115  O     O_2   0.202793 0.053844 0.756692 -0.204349
O116  O     O_2   0.110968 0.013380 0.710867 -0.182140
O117  O     O_3   0.183939 0.936802 0.758779 -0.448575
H39   H     H_    0.161594 0.944930 0.794942 0.407408
S24   S     S_3+6 0.038303 0.824295 0.715616 0.176864
O118  O     O_2   0.103040 0.826677 0.736910 -0.152954
O119  O     O_2   0.016782 0.888545 0.703944 -0.173416
O120  O     O_3   0.993040 0.794670 0.766611 -0.415160
H40   H     H_    0.951294 0.795511 0.750225 0.364138
S25   S     S_3+6 0.679881 0.507184 0.778199 0.209343
O121  O     O_2   0.708677 0.460427 0.738969 -0.138250
O122  O     O_2   0.614393 0.489547 0.788924 -0.165327
O123  O     O_3   0.680376 0.575419 0.745316 -0.424072
H41   H     H_    0.648069 0.599997 0.764670 0.412236
S26   S     S_3+6 0.508934 0.680828 0.777397 0.195391
O124  O     O_2   0.563227 0.705671 0.745620 -0.174609
O125  O     O_2   0.518646 0.613440 0.786756 -0.182464
O126  O     O_3   0.446799 0.688824 0.736217 -0.383003
H42   H     H_    0.413546 0.669003 0.758055 0.410741
S27   S     S_3+6 0.323897 0.531505 0.783289 0.178159
O127  O     O_2   0.323333 0.594737 0.758334 -0.190645
O128  O     O_2   0.389074 0.513470 0.795380 -0.167611
O129  O     O_3   0.295565 0.481856 0.735325 -0.401140
H43   H     H_    0.297132 0.441503 0.754467 0.361585
S28   S     S_3+6 0.492876 0.321977 0.779519 0.186504
O130  O     O_2   0.433376 0.327937 0.748029 -0.155512
O131  O     O_2   0.514571 0.385102 0.794655 -0.166355
O132  O     O_3   0.545501 0.288591 0.736630 -0.413008
H44   H     H_    0.582957 0.285526 0.760148 0.354550
S29   S     S_3+6 0.321585 0.492533 0.220614 0.200138
O133  O     O_2   0.327809 0.433005 0.252064 -0.159408
O134  O     O_2   0.384618 0.514600 0.205542 -0.157862
O135  O     O_3   0.287847 0.544902 0.263520 -0.407710
H45   H     H_    0.285202 0.582570 0.240217 0.378882
S30   S     S_3+6 0.507066 0.679257 0.221638 0.207928
O136  O     O_2   0.460008 0.707659 0.260816 -0.151091
O137  O     O_2   0.489827 0.613719 0.210680 -0.153722
O138  O     O_3   0.575152 0.679986 0.254708 -0.416921
H46   H     H_    0.600587 0.649247 0.234147 0.411164
S31   S     S_3+6 0.679836 0.510233 0.222216 0.194004
O139  O     O_2   0.705250 0.564044 0.254237 -0.153054
O140  O     O_2   0.612656 0.520917 0.212517 -0.182191
O141  O     O_3   0.686679 0.447847 0.263241 -0.423109
H47   H     H_    0.666612 0.414992 0.241137 0.406907
S32   S     S_3+6 0.532250 0.323034 0.216930 0.172567
O142  O     O_2   0.595561 0.322894 0.241655 -0.197553
O143  O     O_2   0.513529 0.388109 0.205205 -0.170964
O144  O     O_3   0.483054 0.293946 0.264965 -0.402820
H48   H     H_    0.442606 0.295305 0.246015 0.360438
S33   S     S_3+6 0.169091 0.906375 0.385321 0.095947
O145  O     O_2   0.189347 0.868556 0.435167 -0.243816
O146  O     O_2   0.100512 0.906040 0.381817 -0.241874
O147  O     O_3   0.198072 0.873862 0.325778 -0.479841
H49   H     H_    0.177061 0.833934 0.322485 0.387343
S34   S     S_3+6 0.099549 0.157795 0.392766 0.060779
O148  O     O_2   0.129178 0.160873 0.450246 -0.285966
O149  O     O_2   0.093723 0.091966 0.375128 -0.268566
O150  O     O_3   0.144858 0.193901 0.345679 -0.497577
H50   H     H_    0.185651 0.174254 0.349860 0.402457
S35   S     S_3+6 0.851824 0.109478 0.404771 0.065503
O151  O     O_2   0.862465 0.127148 0.465693 -0.304647
O152  O     O_2   0.912159 0.100513 0.374748 -0.263244
O153  O     O_3   0.813506 0.166742 0.372624 -0.495848
H51   H     H_    0.842933 0.201047 0.370906 0.395529
S36   S     S_3+6 0.900995 0.854910 0.389694 0.080407
O154  O     O_2   0.871023 0.863123 0.446664 -0.291611
O155  O     O_2   0.917519 0.916272 0.365718 -0.220884
O156  O     O_3   0.850433 0.821494 0.345733 -0.506043
H52   H     H_    0.817704 0.852601 0.340260 0.379603
S37   S     S_3+6 0.854703 0.901301 0.610619 0.081575
O157  O     O_2   0.862821 0.871189 0.553719 -0.290567
O158  O     O_2   0.916145 0.917570 0.634530 -0.221006
O159  O     O_3   0.821042 0.850951 0.654705 -0.506087
H53   H     H_    0.852089 0.818213 0.660413 0.381553
S38   S     S_3+6 0.905726 0.168198 0.614159 0.094076
O160  O     O_2   0.868278 0.187405 0.563731 -0.247051
O161  O     O_2   0.905928 0.099680 0.618520 -0.241732
O162  O     O_3   0.872475 0.197724 0.673131 -0.479286
H54   H     H_    0.832551 0.176670 0.676259 0.386080
S39   S     S_3+6 0.158644 0.096233 0.610832 0.065068
O163  O     O_2   0.164124 0.129247 0.555104 -0.279318
O164  O     O_2   0.092173 0.090624 0.626435 -0.261843
O165  O     O_3   0.193984 0.137848 0.661210 -0.498115
H55   H     H_    0.175524 0.179330 0.658422 0.406001
S40   S     S_3+6 0.111128 0.851572 0.592804 0.077080
O166  O     O_2   0.126982 0.862857 0.531554 -0.312275
O167  O     O_2   0.102977 0.911508 0.623565 -0.239486
O168  O     O_3   0.169274 0.812843 0.623107 -0.479513
H56   H     H_    0.203952 0.841884 0.623283 0.403973
S41   S     S_3+6 0.667975 0.406683 0.885552 0.093141
O169  O     O_2   0.685996 0.369243 0.936370 -0.249400
O170  O     O_2   0.599540 0.407375 0.880222 -0.240564
O171  O     O_3   0.698284 0.373046 0.827114 -0.479633
H57   H     H_    0.677153 0.333172 0.823939 0.385823
S42   S     S_3+6 0.597618 0.657675 0.890648 0.057144
O172  O     O_2   0.628758 0.661027 0.947389 -0.285935
O173  O     O_2   0.591116 0.591748 0.873506 -0.262880
O174  O     O_3   0.641845 0.693308 0.842368 -0.505374
H58   H     H_    0.682780 0.673836 0.846035 0.404320
S43   S     S_3+6 0.351008 0.608910 0.904237 0.069411
O175  O     O_2   0.361660 0.627245 0.964987 -0.305552
O176  O     O_2   0.411501 0.600554 0.874414 -0.220619
O177  O     O_3   0.312553 0.665724 0.871575 -0.489186
H59   H     H_    0.272345 0.667856 0.891334 0.365642
S44   S     S_3+6 0.401077 0.354249 0.889729 0.081389
O178  O     O_2   0.370819 0.361666 0.946656 -0.289154
O179  O     O_2   0.416984 0.415987 0.866264 -0.220631
O180  O     O_3   0.351051 0.320630 0.845371 -0.505783
H60   H     H_    0.317898 0.351342 0.840168 0.379976
S45   S     S_3+6 0.354605 0.401086 0.110454 0.078549
O181  O     O_2   0.362434 0.370970 0.053530 -0.290920
O182  O     O_2   0.416158 0.417345 0.134078 -0.222557
O183  O     O_3   0.321142 0.350768 0.154700 -0.506078
H61   H     H_    0.352068 0.317834 0.160006 0.379401
S46   S     S_3+6 0.406476 0.668146 0.114336 0.100212
O184  O     O_2   0.369012 0.685940 0.063481 -0.258012
O185  O     O_2   0.406785 0.599739 0.119771 -0.197705
O186  O     O_3   0.372496 0.698165 0.172726 -0.461562
H62   H     H_    0.371178 0.742917 0.165864 0.362694
S47   S     S_3+6 0.658243 0.598602 0.108430 0.064615
O187  O     O_2   0.662552 0.629496 0.051594 -0.281884
O188  O     O_2   0.592083 0.592843 0.125056 -0.263309
O189  O     O_3   0.693827 0.642616 0.156843 -0.497739
H63   H     H_    0.674663 0.683679 0.153014 0.403846
S48   S     S_3+6 0.608835 0.351852 0.095924 0.063900
O190  O     O_2   0.627113 0.362326 0.035103 -0.304333
O191  O     O_2   0.599350 0.412264 0.125629 -0.263573
O192  O     O_3   0.665874 0.313843 0.128701 -0.497537
H64   H     H_    0.700140 0.343314 0.130388 0.394443

loop_
_geom_bond_atom_site_label_1
_geom_bond_atom_site_label_2
_ccdc_geom_bond_type
O168  H56   S    
C22   C150  A    
O126  H42   S    
C5    C37   S    
C130  C146  A    
O186  H62   S    
C30   C45   S    
C116  C132  A    
C89   S7    S    
S47   O187  D    
C117  C133  A    
C4    C36   S    
O114  H38   S    
C25   C143  A    
O174  H58   S    
O33   Zn9   S    
O81   H27   S    
S12   O82   D    
C16   C144  A    
C12   C36   A    
C20   C40   A    
C98   C114  A    
C108  S20   S    
C22   C38   A    
S4    O58   D    
C62   C70   T    
O47   Zn12  S    
C96   S4    S    
C127  S39   S    
S38   O162  S    
S16   O96   S    
C87   H15   S    
C48   O44   A    
S20   O106  D    
C88   H16   S    
C86   H14   S    
O38   Zn10  S    
C45   O45   A    
C120  S32   S    
C28   C144  A    
C129  C145  A    
O26   Zn6   S    
S29   O135  S    
C31   C147  A    
C116  S28   S    
S38   O161  D    
C114  C130  A    
C102  C118  A    
S2    O53   D    
C108  C124  A    
C18   C82   A    
C136  C152  A    
O21   Zn1   S    
O34   Zn9   S    
C56   O30   A    
C126  C142  A    
C54   O28   A    
O13   Zn5   S    
C84   C100  A    
C91   C107  A    
S39   O165  S    
C105  S17   S    
O117  H39   S    
C94   S2    S    
S18   O100  D    
C23   C37   A    
C16   C80   A    
S2    O54   S    
C100  S16   S    
S1    O49   D    
C8    O12   A    
O123  H41   S    
C119  C135  A    
O37   Zn10  S    
C127  C143  A    
C102  S10   S    
C124  S36   S    
C92   S8    S    
C87   C103  A    
O171  H57   S    
C63   C71   T    
S9    O74   D    
S33   O145  D    
C32   C47   S    
O6    Zn4   S    
O144  H48   S    
O35   Zn9   S    
S35   O152  D    
S12   O84   S    
S7    O68   D    
S32   O143  D    
S4    O60   S    
C85   H13   S    
C74   C90   A    
C11   C35   A    
C18   C38   A    
O32   Zn6   S    
O45   Zn12  S    
C79   H7    S    
S22   O114  S    
C55   O29   A    
C78   C94   A    
S20   O108  S    
C27   C141  A    
C125  S37   S    
O12   Zn8   S    
C61   C69   T    
C126  S38   S    
C27   C139  A    
C30   C150  A    
S34   O148  D    
C75   H3    S    
C122  S34   S    
S27   O127  D    
C136  S48   S    
C7    C39   S    
C10   C138  A    
O36   Zn9   S    
C113  C129  A    
O63   H21   S    
C56   O32   A    
C14   C142  A    
S25   O121  D    
C54   O26   A    
C47   O43   A    
C115  S27   S    
S39   O163  D    
C50   O20   A    
C109  S21   S    
S41   O169  D    
O135  H45   S    
S47   O188  D    
S5    O61   D    
O48   Zn12  S    
C6    O14   A    
O159  H53   S    
S10   O76   D    
S1    O51   S    
O29   Zn5   S    
C112  S24   S    
O129  H43   S    
S35   O151  D    
C123  C139  A    
C14   C78   A    
C49   C57   S    
O99   H33   S    
C74   H2    S    
O66   H22   S    
C121  C137  A    
S30   O136  D    
C28   C140  A    
C52   C60   S    
C59   C67   T    
O44   Zn11  S    
C53   C61   S    
C92   C108  A    
C15   C79   A    
C125  C141  A    
S8    O70   D    
C31   C46   S    
C55   C63   S    
S33   O147  S    
S6    O65   D    
C56   C64   S    
C131  C147  A    
S46   O184  D    
C21   C149  A    
C118  C134  A    
C75   C91   A    
S11   O80   D    
C90   S6    S    
O54   H18   S    
S21   O110  D    
C132  S44   S    
C19   C83   A    
C88   C104  A    
S17   O98   D    
C55   O31   A    
C7    O13   A    
C7    O11   A    
S36   O154  D    
S27   O128  D    
C128  S40   S    
S22   O112  D    
S48   O190  D    
S31   O141  S    
C17   C37   A    
C82   H10   S    
S6    O66   S    
S45   O182  D    
C45   O41   A    
C47   O47   A    
S44   O178  D    
S30   O138  S    
C25   C137  A    
C29   C151  A    
O39   Zn10  S    
C32   C152  A    
C3    C35   S    
C106  C122  A    
S46   O186  S    
S13   O85   D    
S3    O56   D    
S37   O159  S    
C110  C126  A    
C15   C143  A    
S40   O166  D    
S25   O123  S    
C13   C141  A    
C20   C84   A    
O165  H55   S    
C42   O34   A    
C86   C102  A    
C51   O23   A    
C101  S11   S    
O153  H51   S    
S28   O131  D    
S41   O171  S    
C109  C125  A    
C1    O7    A    
S5    O63   S    
C4    O4    A    
O183  H61   S    
O22   Zn4   S    
C14   C34   A    
C135  S47   S    
O72   H24   S    
O69   H23   S    
C114  S26   S    
C65   C72   S    
C8    C40   S    
O14   Zn8   S    
S28   O132  S    
C67   C70   S    
S12   O83   D    
S37   O157  D    
C110  S22   S    
C11   C75   A    
O150  H50   S    
C16   C36   A    
C111  C127  A    
C27   C42   S    
C2    C34   S    
C93   S3    S    
S8    O72   S    
S4    O59   D    
S27   O129  S    
S10   O77   D    
S15   O93   S    
C82   C98   A    
S23   O117  S    
C49   O17   A    
S24   O118  D    
O15   Zn7   S    
S26   O124  D    
C89   C105  A    
C44   O36   A    
O8    Zn2   S    
O9    Zn5   S    
O177  H59   S    
O3    Zn3   S    
C93   C109  A    
S29   O134  D    
C50   O18   A    
O1    Zn1   S    
O141  H47   S    
S10   O78   S    
C53   O25   A    
S3    O55   D    
C100  C116  A    
S36   O156  S    
C107  C123  A    
S19   O104  D    
S42   O172  D    
C85   C101  A    
S31   O139  D    
S44   O180  S    
C103  S9    S    
S39   O164  D    
C29   C145  A    
S14   O88   D    
C31   C149  A    
C80   H8    S    
S18   O101  D    
S13   O87   S    
S21   O109  D    
C134  S46   S    
C11   C139  A    
C24   C152  A    
C9    C137  A    
S40   O168  S    
C68   C69   S    
C117  S29   S    
S11   O79   D    
C12   C140  A    
C42   O40   A    
C119  S31   S    
C51   O21   A    
S18   O102  S    
O25   Zn5   S    
O105  H35   S    
C83   C99   A    
S9    O73   D    
C6    O10   A    
C9    C33   A    
C131  S43   S    
C48   O46   A    
O20   Zn4   S    
C21   C85   A    
C43   O39   A    
O180  H60   S    
C50   C58   S    
C122  C138  A    
S14   O90   S    
C123  S35   S    
O120  H40   S    
O189  H63   S    
C115  C131  A    
C54   C62   S    
C121  S33   S    
C94   C110  A    
C19   C147  A    
O96   H32   S    
C120  C136  A    
C80   C96   A    
C17   C145  A    
S43   O175  D    
C79   C95   A    
S6    O64   D    
O18   Zn2   S    
S23   O115  D    
C49   O19   A    
S24   O120  S    
S45   O183  S    
C44   O38   A    
O57   H19   S    
C52   O22   A    
C24   C88   A    
C90   C106  A    
S34   O149  D    
C2    O2    A    
C46   O48   A    
C12   C76   A    
S38   O160  D    
C53   O27   A    
O31   Zn7   S    
S2    O52   D    
C41   O33   A    
C91   S5    S    
C83   H11   S    
C81   H9    S    
C124  C140  A    
C95   S1    S    
C57   C65   T    
O147  H49   S    
C26   C138  A    
S34   O150  S    
S20   O107  D    
C13   C35   A    
C32   C148  A    
C28   C43   S    
C101  C117  A    
S43   O176  D    
C73   C89   A    
O108  H36   S    
S1    O50   D    
C46   O42   A    
C104  S12   S    
C129  S41   S    
C135  C151  A    
C99   C115  A    
C77   C93   A    
O51   H17   S    
C76   H4    S    
C17   C81   A    
C22   C86   A    
S30   O137  D    
C112  C128  A    
S19   O103  D    
C60   C68   T    
S8    O71   D    
C4    O8    A    
S9    O75   S    
S33   O146  D    
S46   O185  D    
O41   Zn11  S    
C5    O15   A    
C104  C120  A    
S35   O153  S    
S14   O89   D    
C118  S30   S    
O90   H30   S    
O30   Zn8   S    
O132  H44   S    
C97   S15   S    
O24   Zn2   S    
S15   O91   D    
S7    O69   S    
C113  S25   S    
S32   O142  D    
O162  H54   S    
C1    C33   S    
O19   Zn3   S    
S17   O97   D    
S28   O130  D    
O16   Zn6   S    
C96   C112  A    
C3    O5    A    
O17   Zn1   S    
O87   H29   S    
S36   O155  D    
S22   O113  D    
S31   O140  D    
C134  C150  A    
S44   O179  D    
C52   O24   A    
S11   O81   S    
C1    O1    A    
O111  H37   S    
C24   C40   A    
C58   C66   T    
C66   C71   S    
O156  H52   S    
S37   O158  D    
O5    Zn1   S    
C84   H12   S    
O40   Zn10  S    
C8    O16   A    
S40   O167  D    
S19   O105  S    
S25   O122  D    
C23   C87   A    
C98   S14   S    
C9    C73   A    
C25   C44   S    
C78   H6    S    
C30   C146  A    
C26   C142  A    
S41   O170  D    
S47   O189  S    
C13   C77   A    
S5    O62   D    
C29   C48   S    
C132  C148  A    
C133  C149  A    
C133  S45   S    
S43   O177  S    
O23   Zn3   S    
S48   O192  S    
O11   Zn7   S    
C128  C144  A    
O192  H64   S    
C21   C39   A    
O42   Zn11  S    
C20   C148  A    
C105  C121  A    
C10   C34   A    
O28   Zn8   S    
S15   O92   D    
C5    O9    A    
O138  H46   S    
C19   C39   A    
C76   C92   A    
S48   O191  D    
S16   O94   D    
S23   O116  D    
S24   O119  D    
S45   O181  D    
S26   O125  D    
O84   H28   S    
C43   O35   A    
S21   O111  S    
C111  S23   S    
C51   C59   S    
O75   H25   S    
C97   C113  A    
S7    O67   D    
S32   O144  S    
O46   Zn12  S    
C106  S18   S    
S29   O133  D    
S17   O99   S    
C107  S19   S    
C23   C151  A    
O93   H31   S    
C130  S42   S    
O7    Zn3   S    
C103  C119  A    
C18   C146  A    
O4    Zn4   S    
S42   O173  D    
O60   H20   S    
S26   O126  S    
C95   C111  A    
C2    O6    A    
O27   Zn7   S    
C10   C74   A    
C3    O3    A    
C81   C97   A    
S16   O95   D    
S13   O86   D    
S3    O57   S    
C99   S13   S    
C64   C72   T    
C41   O37   A    
O102  H34   S    
S42   O174  S    
C73   H1    S    
O10   Zn6   S    
O43   Zn11  S    
O78   H26   S    
C6    C38   S    
C15   C33   A    
C26   C41   S    
C77   H5    S    
O2    Zn2   S    
