data_mof_unit_pretest_1121.cif
_audit_creation_date              2012-12-11T15:52:32-0500
_audit_creation_method            fapswitch 2.2
_symmetry_space_group_name_H-M    P1
_symmetry_Int_Tables_number       1
_space_group_crystal_system       triclinic
_cell_length_a                    6.998672
_cell_length_b                    14.574172
_cell_length_c                    16.127082
_cell_angle_alpha                 90.508646
_cell_angle_beta                  90.148503
_cell_angle_gamma                 89.90184
_cell_volume                      1644.88724218

loop_
_atom_site_label
_atom_site_type_symbol
_atom_type_description
_atom_site_fract_x
_atom_site_fract_y
_atom_site_fract_z
_atom_type_partial_charge
O1    O     O_R   0.494400 0.415640 0.412830 -0.542401
O2    O     O_R   0.823920 0.405510 0.586560 -0.546748
O3    O     O_R   0.994250 0.584360 0.587170 -0.507143
C1    C     C_R   0.653826 0.381430 0.613896 0.691442
O4    O     O_R   0.824110 0.404610 0.413450 -0.548968
O5    O     O_R   0.994440 0.583460 0.412820 -0.529046
C2    C     C_R   0.655729 0.380796 0.385560 0.709916
O6    O     O_R   0.494210 0.416540 0.587180 -0.529237
O7    O     O_3   0.660810 0.558680 0.500000 -0.346255
V1    V     V_3+5 0.935650 0.489110 0.500000 1.507021
O8    O     O_R   0.324150 0.594490 0.413440 -0.540030
C3    C     C_R   0.153090 0.618889 0.386553 0.752891
O9    O     O_R   0.323970 0.595390 0.586550 -0.536549
C4    C     C_R   0.154233 0.616580 0.616083 0.758668
V2    V     V_3+5 0.435660 0.510890 0.500000 1.524785
O10   O     O_3   0.160630 0.441320 0.500000 -0.388086
C5    C     C_3   0.052439 0.639506 0.768602 0.030391
H1    H     H_    0.170757 0.596040 0.793283 0.122503
C6    C     C_3   0.016005 0.713114 0.838711 0.021343
H2    H     H_    0.087128 0.688207 0.896211 0.105347
H3    H     H_    0.870299 0.866382 0.751974 0.145542
C7    C     C_3   0.027588 0.778588 0.660017 -0.037726
C8    C     C_3   0.339945 0.717634 0.716057 -0.399963
C9    C     C_3   0.136711 0.686061 0.687507 -0.048224
H4    H     H_    0.415168 0.752287 0.665086 0.203012
H5    H     H_    0.430294 0.657685 0.732854 0.167801
C10   C     C_3   0.116314 0.806042 0.814552 0.035710
C11   C     C_3   0.019666 0.846574 0.736549 -0.369278
C12   C     C_3   0.327276 0.783856 0.791250 -0.387254
H6    H     H_    0.398385 0.752079 0.845640 0.153326
H7    H     H_    0.406225 0.847881 0.776328 0.188438
H8    H     H_    0.087585 0.913619 0.723609 0.180571
C13   C     C_R   0.942609 0.777853 0.219317 -0.046499
C14   C     C_R   0.953259 0.715081 0.285712 -0.053228
C15   C     C_R   0.132756 0.690844 0.320585 -0.109938
C16   C     C_R   0.290395 0.741767 0.295768 -0.078683
H9    H     H_    0.421073 0.737028 0.329038 0.153354
C17   C     C_R   0.277796 0.805037 0.231807 -0.103650
H10   H     H_    0.396080 0.847646 0.219902 0.159612
C18   C     C_R   0.110101 0.819033 0.187578 -0.137638
C19   C     C_R   0.793945 0.259027 0.705934 -0.132550
H11   H     H_    0.923205 0.262303 0.671514 0.164084
C20   C     C_R   0.782222 0.195555 0.769924 -0.178770
H12   H     H_    0.904489 0.152193 0.781749 0.133360
C21   C     C_R   0.615207 0.186619 0.816997 -0.061173
C22   C     C_R   0.454239 0.241765 0.795797 0.084300
C23   C     C_R   0.461008 0.295797 0.723265 0.019124
C24   C     C_R   0.636755 0.311844 0.682198 -0.143726
C25   C     C_R   0.800440 0.247887 0.300152 0.143863
C26   C     C_R   0.785435 0.185839 0.232963 -0.116378
H13   H     H_    0.902490 0.139046 0.220246 0.131062
C27   C     C_R   0.621086 0.181948 0.182958 -0.074209
C28   C     C_R   0.468791 0.241374 0.201478 -0.161969
H14   H     H_    0.339675 0.239994 0.164321 0.130559
C29   C     C_R   0.482559 0.304834 0.267049 -0.169149
H15   H     H_    0.363779 0.351080 0.277706 0.128465
C30   C     C_R   0.647565 0.310136 0.317232 -0.053716
O11   O     O_R   0.771300 0.080930 0.910090 -0.544888
O12   O     O_R   0.441270 0.092800 0.083770 -0.548414
O13   O     O_R   0.271080 0.913920 0.084380 -0.540349
C31   C     C_R   0.610081 0.114986 0.112659 0.681259
O14   O     O_R   0.441580 0.091910 0.910670 -0.539895
O15   O     O_R   0.271390 0.913020 0.910040 -0.539591
C32   C     C_R   0.609543 0.116135 0.883888 0.703795
O16   O     O_R   0.770990 0.081830 0.084440 -0.538977
O17   O     O_3   0.604750 0.938760 0.997250 -0.367703
V3    V     V_3+5 0.329850 0.008280 0.997210 1.409489
O18   O     O_R   0.941680 0.901940 0.910610 -0.544471
C33   C     C_R   0.110236 0.877139 0.884330 0.684976
O19   O     O_R   0.941370 0.902830 0.083720 -0.530286
C34   C     C_R   0.108508 0.883350 0.114701 0.718303
V4    V     V_3+5 0.829860 0.986420 0.997150 1.432611
O20   O     O_3   0.104830 0.056030 0.997180 -0.375401
C35   C     C_3   0.894749 0.565614 0.758931 -0.699638
H16   H     H_    0.755637 0.593705 0.739372 0.240688
H17   H     H_    0.938258 0.510096 0.715963 0.241823
H18   H     H_    0.873099 0.530915 0.819233 0.184924
C36   C     C_2   0.135439 0.821663 0.586869 0.722953
O21   O     O_2   0.135135 0.782835 0.519250 -0.569834
O22   O     O_R   0.234813 0.904460 0.595799 -0.662099
H19   H     H_    0.297278 0.924753 0.542369 0.310980
C37   C     C_2   0.756305 0.813096 0.193273 0.751627
O23   O     O_2   0.652989 0.766560 0.148525 -0.555939
O24   O     O_R   0.712793 0.904793 0.212132 -0.666717
H20   H     H_    0.615240 0.932243 0.173080 0.286977
C38   C     C_2   0.776659 0.690248 0.328812 0.765505
O25   O     O_2   0.676580 0.627925 0.302116 -0.561267
O26   O     O_R   0.734550 0.735038 0.403746 -0.639756
H21   H     H_    0.618073 0.709980 0.432698 0.305075
C39   C     C_3   0.276875 0.244260 0.849544 -0.735559
H22   H     H_    0.317975 0.253961 0.915599 0.202180
H23   H     H_    0.180327 0.302179 0.835061 0.217595
H24   H     H_    0.195126 0.179815 0.841568 0.215044
C40   C     C_2   0.281896 0.315893 0.679215 0.743289
O27   O     O_2   0.180323 0.379802 0.701200 -0.591312
O28   O     O_R   0.242686 0.266359 0.606365 -0.661905
H25   H     H_    0.130592 0.291321 0.573871 0.293946
C41   C     C_3   0.978571 0.243487 0.352989 -0.727074
H26   H     H_    0.072083 0.184945 0.335080 0.201460
H27   H     H_    0.063669 0.306964 0.345532 0.208713
H28   H     H_    0.939452 0.234433 0.419105 0.206546
C42   C     C_3   0.801853 0.722393 0.861475 -0.748918
H29   H     H_    0.718275 0.747449 0.808035 0.218006
H30   H     H_    0.741796 0.655730 0.880949 0.202613
H31   H     H_    0.777823 0.766620 0.916332 0.231733
C43   C     C_2   0.823079 0.768740 0.628188 0.750881
O29   O     O_2   0.738441 0.695956 0.629045 -0.564460
O30   O     O_R   0.731686 0.846236 0.595911 -0.649775
H32   H     H_    0.602410 0.831727 0.570714 0.302928

loop_
_geom_bond_atom_site_label_1
_geom_bond_atom_site_label_2
_ccdc_geom_bond_type
C29   H15   S    
C18   C34   S    
C10   C12   S    
C19   H11   S    
C15   C16   A    
C1    O6    A    
C28   H14   S    
C35   H17   S    
O14   V3    S    
C8    C12   S    
C16   H9    S    
C27   C31   S    
O5    C3    A    
C17   H10   S    
C6    C42   S    
C38   O26   S    
C43   O29   D    
V2    O10   S    
C41   H26   S    
C25   C30   A    
O30   H32   S    
C42   H31   S    
C14   C15   A    
C14   C38   S    
C8    H5    S    
C4    C9    S    
O14   C32   A    
O12   V3    S    
C25   C41   S    
O8    V2    S    
C19   C24   A    
O17   V4    S    
O15   C33   A    
O13   V3    S    
O18   C33   A    
C35   H18   S    
C26   C27   A    
C8    C9    S    
O19   C34   A    
V3    O20   S    
C6    C10   S    
C13   C37   S    
C10   C33   S    
C40   O28   S    
O17   V3    S    
C7    C11   S    
O9    C4    A    
C19   C20   A    
C42   H29   S    
C5    H1    S    
C28   C29   A    
O11   C32   A    
O15   V3    S    
O12   C31   A    
C5    C9    S    
C35   H16   S    
C13   C18   A    
C11   H8    S    
O24   H20   S    
C7    C36   S    
O4    C2    A    
C38   O25   D    
V4    O20   S    
O13   C34   A    
C26   H13   S    
C7    C43   S    
O2    C1    A    
C20   H12   S    
C12   H6    S    
C31   O16   A    
C39   H23   S    
C23   C24   A    
O18   V4    S    
O28   H25   S    
C13   C14   A    
C3    C15   S    
C42   H30   S    
C20   C21   A    
O3    C4    A    
O1    V2    S    
H3    C11   S    
C37   O23   D    
O6    V2    S    
C37   O24   S    
C29   C30   A    
C5    C35   S    
C7    C9    S    
O2    V1    S    
C27   C28   A    
C39   H24   S    
C1    C24   S    
O7    V1    S    
C22   C23   A    
O1    C2    A    
O22   H19   S    
O5    V1    S    
O8    C3    A    
C22   C39   S    
O16   V4    S    
C21   C32   S    
C41   H27   S    
C41   H28   S    
C6    H2    S    
O9    V2    S    
O7    V2    S    
O4    V1    S    
C12   H7    S    
O3    V1    S    
V1    O10   S    
C17   C18   A    
C36   O21   D    
O11   V4    S    
C39   H22   S    
C43   O30   S    
C16   C17   A    
C5    C6    S    
C23   C40   S    
C36   O22   S    
C8    H4    S    
C40   O27   D    
C21   C22   A    
O26   H21   S    
C25   C26   A    
C10   C11   S    
O19   V4    S    
C2    C30   S    
