data_mof_unit_pretest_1315.cif
_audit_creation_date              2012-12-10T17:29:18-0500
_audit_creation_method            fapswitch 2.2
_symmetry_space_group_name_H-M    P1
_symmetry_Int_Tables_number       1
_space_group_crystal_system       triclinic
_cell_length_a                    11.998072
_cell_length_b                    12.890425
_cell_length_c                    13.115387
_cell_angle_alpha                 87.351314
_cell_angle_beta                  113.849434
_cell_angle_gamma                 93.414532
_cell_volume                      1851.38619815

loop_
_atom_site_label
_atom_site_type_symbol
_atom_type_description
_atom_site_fract_x
_atom_site_fract_y
_atom_site_fract_z
_atom_type_partial_charge
C1    C     C_R   0.477315 0.299445 0.498134 0.878266
C2    C     C_R   0.555910 0.484440 0.988983 0.092152
C3    C     C_R   0.531404 0.453222 0.880479 0.059697
C4    C     C_R   0.461218 0.473225 0.027076 0.095239
C5    C     C_R   0.351308 0.416125 0.964951 0.179126
C6    C     C_R   0.336191 0.372514 0.864809 -0.256238
C7    C     C_R   0.425284 0.390528 0.823118 -0.189107
C8    C     C_R   0.473087 0.517692 0.125660 -0.254275
C9    C     C_R   0.280145 0.437140 0.110904 -0.204025
C10   C     C_R   0.613175 0.486019 0.831482 -0.206579
C11   C     C_R   0.536453 0.811840 0.503522 -0.055038
C12   C     C_R   0.567300 0.492329 0.709325 0.882762
C13   C     C_R   0.464291 0.188116 0.498207 -0.052012
C14   C     C_R   0.358482 0.029160 0.517513 -0.219800
C15   C     C_R   0.365105 0.136703 0.512116 -0.211570
C16   C     C_R   0.555734 0.132822 0.487982 -0.279479
C17   C     C_R   0.550332 0.026065 0.493970 0.185503
C18   C     C_R   0.451023 0.973886 0.508972 0.186393
C19   C     C_R   0.445353 0.867094 0.514429 -0.280498
C20   C     C_R   0.635992 0.863298 0.490286 -0.204224
C21   C     C_R   0.642918 0.970830 0.485489 -0.221892
C22   C     C_R   0.007950 0.600966 0.398053 -0.341816
C23   C     C_R   0.522860 0.700538 0.502319 0.895397
C24   C     C_R   0.128366 0.591287 0.408240 0.015079
C25   C     C_R   0.158285 0.455593 0.543469 -0.036099
C26   C     C_R   0.037894 0.462992 0.536620 0.095378
C27   C     C_R   0.961713 0.536689 0.462762 0.091149
C28   C     C_R   0.841172 0.543854 0.455691 -0.047294
C29   C     C_R   0.871710 0.408870 0.591884 0.013669
C30   C     C_R   0.991774 0.398771 0.601452 -0.330833
C31   C     C_R   0.432776 0.504008 0.291167 0.875385
C32   C     C_R   0.259919 0.400953 0.006001 -0.199975
C33   C     C_R   0.389375 0.492448 0.171877 -0.059660
C34   C     C_R   0.732032 0.526147 0.898884 0.219194
C35   C     C_R   0.762153 0.540743 0.012271 -0.177135
C36   C     C_R   0.674655 0.523679 0.055898 -0.250068
H1    H     H_    0.214406 0.416997 0.146673 0.154952
H2    H     H_    0.706818 0.820685 0.481827 0.158705
H3    H     H_    0.281956 0.989411 0.528857 0.138932
H4    H     H_    0.719537 0.010599 0.474325 0.138793
H5    H     H_    0.294218 0.179369 0.520408 0.156392
H6    H     H_    0.951615 0.658319 0.340088 0.140617
H7    H     H_    0.047907 0.341172 0.659089 0.134423
H8    H     H_    0.163138 0.641189 0.358139 0.129051
H9    H     H_    0.255173 0.325188 0.818258 0.133637
H10   H     H_    0.217050 0.398413 0.599034 0.116587
H11   H     H_    0.176067 0.356792 0.959716 0.134361
H12   H     H_    0.550670 0.568157 0.171928 0.138846
H13   H     H_    0.411445 0.353392 0.746352 0.151663
H14   H     H_    0.368910 0.827226 0.525999 0.162907
N1    N     N_R   0.798200 0.480260 0.519790 -0.092728
N2    N     N_R   0.201820 0.519740 0.480210 -0.096312
O1    O     O_R   0.579910 0.341070 0.505280 -0.625951
O2    O     O_R   0.388440 0.353740 0.492580 -0.632202
O3    O     O_R   0.643280 0.490550 0.663120 -0.605354
O4    O     O_R   0.451810 0.503220 0.650420 -0.607505
O5    O     O_R   0.611560 0.646260 0.507420 -0.619914
O6    O     O_R   0.420090 0.658930 0.494720 -0.624584
O7    O     O_R   0.548190 0.496780 0.349580 -0.613910
O8    O     O_R   0.356720 0.509450 0.336880 -0.620268
Zn1   Zn    Zn3+2 0.627850 0.491540 0.508480 0.943668
Zn2   Zn    Zn3+2 0.372150 0.508460 0.491520 0.938276
H15   H     H_    0.632068 0.172631 0.476168 0.162584
H16   H     H_    0.781622 0.600182 0.399045 0.115814
H17   H     H_    0.837108 0.359224 0.642299 0.121081
N3    N     N_2   0.819955 0.548957 0.852118 -0.282077
H18   H     H_    0.848738 0.484229 0.827904 0.230747
C37   C     C_3   0.915162 0.628402 0.901294 -0.790117
H19   H     H_    0.958460 0.650437 0.842452 0.248487
H20   H     H_    0.986492 0.598415 0.979907 0.227199
H21   H     H_    0.876351 0.698899 0.917388 0.248211
H22   H     H_    0.704258 0.537700 0.143640 0.145100
H23   H     H_    0.852784 0.567790 0.067509 0.153118

loop_
_geom_bond_atom_site_label_1
_geom_bond_atom_site_label_2
_ccdc_geom_bond_type
C31   O8    A    
C24   N2    A    
C23   O6    A    
N3    C37   S    
C1    O2    A    
C8    H12   S    
O6    Zn2   S    
C29   C30   A    
C6    H9    S    
C20   H2    S    
C14   C18   A    
C2    C4    A    
C35   C36   A    
N1    Zn1   S    
C17   C18   A    
O5    Zn1   S    
C4    C8    A    
C5    C32   A    
C34   N3    S    
C31   C33   S    
N3    H18   S    
C14   H3    S    
C25   N2    A    
C10   C34   A    
C3    C10   A    
C12   O4    A    
C9    C33   A    
C4    C5    A    
C19   H14   S    
C11   C19   A    
C26   C27   A    
C22   H6    S    
C21   H4    S    
C10   C12   S    
C37   H21   S    
C29   H17   S    
C30   H7    S    
O3    Zn1   S    
C22   C24   A    
C11   C23   S    
C32   H11   S    
C16   H15   S    
C26   C30   A    
C6    C7    A    
C2    C3    A    
C8    C33   A    
C13   C15   A    
C5    C6    A    
C24   H8    S    
C28   N1    A    
O4    Zn2   S    
C11   C20   A    
O7    Zn1   S    
C12   O3    A    
C1    C13   S    
C15   H5    S    
C2    C36   A    
C9    C32   A    
C28   H16   S    
C22   C27   A    
C18   C19   A    
C20   C21   A    
C7    H13   S    
O8    Zn2   S    
C34   C35   A    
C29   N1    A    
C13   C16   A    
C31   O7    A    
C27   C28   A    
C23   O5    A    
C37   H20   S    
C1    O1    A    
C14   C15   A    
C35   H23   S    
N2    Zn2   S    
O2    Zn2   S    
C3    C7    A    
C25   C26   A    
C37   H19   S    
O1    Zn1   S    
C25   H10   S    
C17   C21   A    
C36   H22   S    
C16   C17   A    
C9    H1    S    
