data_mof_unit_pretest_473.cif
_audit_creation_date              2012-12-11T16:08:52-0500
_audit_creation_method            fapswitch 2.2
_symmetry_space_group_name_H-M    P1
_symmetry_Int_Tables_number       1
_space_group_crystal_system       triclinic
_cell_length_a                    12.954883
_cell_length_b                    13.30735
_cell_length_c                    27.673664
_cell_angle_alpha                 94.943753
_cell_angle_beta                  90.074989
_cell_angle_gamma                 119.16529
_cell_volume                      4145.30726015

loop_
_atom_site_label
_atom_site_type_symbol
_atom_type_description
_atom_site_fract_x
_atom_site_fract_y
_atom_site_fract_z
_atom_type_partial_charge
C1    C     C_R   0.625463 0.899105 0.425911 0.549827
C2    C     C_R   0.240718 0.779736 0.292238 0.012598
C3    C     C_R   0.214047 0.769990 0.191986 0.021582
C4    C     C_R   0.601106 0.222083 0.440628 0.549725
C5    C     C_R   0.244457 0.694653 0.212284 -0.097870
C6    C     C_R   0.257367 0.699255 0.262254 -0.126365
C7    C     C_R   0.182027 0.752078 0.143073 -0.137835
C8    C     C_R   0.143467 0.821337 0.122915 0.021050
C9    C     C_R   0.213648 0.944618 0.353235 -0.096624
C10   C     C_R   0.201463 0.941854 0.302782 -0.022547
C11   C     C_R   0.215980 0.859949 0.272194 0.075125
C12   C     C_R   0.632467 0.255512 0.221153 -0.155232
C13   C     C_R   0.170196 0.016414 0.282710 -0.098687
C14   C     C_R   0.147098 0.007350 0.232574 0.285502
C15   C     C_R   0.171776 0.932097 0.200919 -0.001459
C16   C     C_R   0.274775 0.878381 0.424128 0.555226
C17   C     C_R   0.202570 0.855627 0.221658 0.009839
C18   C     C_R   0.159303 0.923283 0.149599 0.262545
C19   C     C_R   0.237282 0.864138 0.373009 0.030476
C20   C     C_R   0.697466 0.973024 0.347899 -0.114137
C21   C     C_R   0.691811 0.959060 0.297591 0.021134
C22   C     C_R   0.694731 0.929476 0.196763 0.035346
C23   C     C_R   0.621074 0.237805 0.269906 -0.182714
C24   C     C_R   0.748724 0.040981 0.221053 -0.068820
C25   C     C_R   0.747391 0.055710 0.271340 -0.086724
C26   C     C_R   0.713355 0.913787 0.147897 -0.086241
C27   C     C_R   0.668887 0.802110 0.125134 -0.005844
C28   C     C_R   0.626865 0.899086 0.565110 0.553304
C29   C     C_R   0.573229 0.765824 0.350424 -0.095621
C30   C     C_R   0.569592 0.750096 0.299766 -0.006402
C31   C     C_R   0.629340 0.846907 0.273272 0.051704
C32   C     C_R   0.506203 0.639389 0.275347 -0.097864
C33   C     C_R   0.505451 0.622213 0.224720 0.232262
C34   C     C_R   0.674885 0.330953 0.305747 -0.024337
C35   C     C_R   0.571569 0.718882 0.198156 0.013491
C36   C     C_R   0.629942 0.831704 0.222624 0.018642
C37   C     C_R   0.589244 0.706287 0.148662 -0.067683
C38   C     C_R   0.637982 0.876991 0.374480 0.019177
C39   C     C_R   0.737050 0.288651 0.652024 -0.107259
C40   C     C_R   0.603680 0.227787 0.578299 0.548900
C41   C     C_R   0.748752 0.309234 0.702492 0.024502
C42   C     C_R   0.757559 0.327197 0.804979 0.023236
C43   C     C_R   0.841640 0.310020 0.778687 -0.036123
C44   C     C_R   0.836398 0.299960 0.728103 -0.096193
C45   C     C_R   0.693635 0.367238 0.207105 0.007401
C46   C     C_R   0.759943 0.336783 0.856554 0.239614
C47   C     C_R   0.683367 0.370636 0.880170 -0.005718
C48   C     C_R   0.571808 0.326259 0.651399 -0.088338
C49   C     C_R   0.579050 0.344014 0.702049 0.009380
C50   C     C_R   0.666814 0.332055 0.727788 0.039064
C51   C     C_R   0.496378 0.365663 0.727781 0.229091
C52   C     C_R   0.272658 0.879879 0.563719 0.558175
C53   C     C_R   0.499800 0.370208 0.778211 -0.082226
C54   C     C_R   0.585000 0.356525 0.803412 -0.020605
C55   C     C_R   0.670397 0.339284 0.778761 0.020729
C56   C     C_1   0.699562 0.379391 0.155730 0.069220
C57   C     C_R   0.589908 0.368190 0.853456 -0.141429
C58   C     C_R   0.643458 0.289280 0.626876 -0.018610
C59   C     C_1   0.227924 0.864492 0.611449 0.055648
C60   C     C_R   0.191301 0.748526 0.725890 0.257865
C61   C     C_R   0.195304 0.751472 0.777564 0.256208
C62   C     C_R   0.168921 0.921465 0.783495 -0.110733
C63   C     C_R   0.177682 0.925926 0.733579 -0.145189
C64   C     C_1   0.634797 0.272352 0.395580 0.035981
C65   C     C_R   0.186909 0.839707 0.704543 -0.011902
C66   C     C_R   0.175811 0.834323 0.805632 0.008599
C67   C     C_1   0.656006 0.303611 0.355416 0.026445
C68   C     C_1   0.146116 0.821640 0.855896 0.082269
C69   C     C_1   0.204032 0.852984 0.653436 0.029501
C70   C     C_1   0.111535 0.802010 0.896295 0.080852
C71   C     C_1   0.640476 0.866314 0.611658 0.022512
C72   C     C_R   0.573492 0.849634 0.734631 -0.063715
C73   C     C_R   0.578728 0.838766 0.784201 -0.090624
C74   C     C_R   0.726129 0.777095 0.770845 0.289795
C75   C     C_R   0.720100 0.788278 0.721120 -0.066918
C76   C     C_R   0.741808 0.445624 0.292851 0.219325
C77   C     C_R   0.644724 0.825227 0.703103 0.012544
C78   C     C_1   0.705415 0.398887 0.113801 0.083504
C79   C     C_R   0.655182 0.803326 0.802617 0.041285
C80   C     C_1   0.664278 0.797683 0.854136 0.063955
C81   C     C_1   0.644441 0.844713 0.652790 -0.009043
C82   C     C_1   0.681639 0.790325 0.896138 0.075629
C83   C     C_R   0.068614 0.774774 0.077967 0.590497
C84   C     C_R   0.716781 0.440756 0.067078 0.568915
C85   C     C_R   0.718504 0.782359 0.080329 0.562322
C86   C     C_R   0.057557 0.766556 0.941520 0.548497
C87   C     C_R   0.709064 0.431671 0.929414 0.579164
C88   C     C_R   0.745166 0.464848 0.242618 0.259304
C89   C     C_R   0.248240 0.780625 0.342138 -0.120086
C90   C     C_R   0.715606 0.776505 0.943318 0.550824
Cr1   Cr    Cr6+3 0.416430 0.829200 0.492370 1.077773
Cr2   Cr    Cr6+3 0.674630 0.087020 0.504170 1.056598
Cr3   Cr    Cr6+3 0.408920 0.083740 0.503490 1.065844
Cr4   Cr    Cr6+3 0.914010 0.832750 0.013970 1.141927
Cr5   Cr    Cr6+3 0.922310 0.578600 0.003000 1.145915
Cr6   Cr    Cr6+3 0.656280 0.574630 0.003870 1.082038
H1    H     H_    0.153750 0.075274 0.306754 0.166085
H2    H     H_    0.253469 0.629112 0.189594 0.162919
H3    H     H_    0.277506 0.638083 0.277486 0.128835
H4    H     H_    0.994787 0.621152 0.312002 0.344648
H5    H     H_    0.074149 0.214986 0.184972 0.371021
H6    H     H_    0.206432 0.009902 0.376964 0.133375
H7    H     H_    0.743656 0.059918 0.366270 0.139517
H8    H     H_    0.793288 0.142413 0.289807 0.130959
H9    H     H_    0.551496 0.621045 0.129397 0.214961
H10   H     H_    0.409942 0.368063 0.251734 0.350243
H11   H     H_    0.843225 0.777559 0.251640 0.385912
H12   H     H_    0.770889 0.987705 0.128846 0.153783
H13   H     H_    0.524447 0.692420 0.371093 0.133473
H14   H     H_    0.901187 0.165135 0.882406 0.377538
H15   H     H_    0.913319 0.305876 0.796598 0.202555
H16   H     H_    0.900501 0.283679 0.708939 0.133295
H17   H     H_    0.525952 0.386960 0.871378 0.161992
H18   H     H_    0.436543 0.386088 0.798239 0.151903
H19   H     H_    0.247057 0.339437 0.749639 0.334081
H20   H     H_    0.125823 0.449082 0.691040 0.383415
H21   H     H_    0.128449 0.478572 0.822145 0.383024
H22   H     H_    0.175254 0.996127 0.717395 0.152298
H23   H     H_    0.796973 0.116383 0.201460 0.125415
H24   H     H_    0.515249 0.878919 0.720996 0.136347
H25   H     H_    0.524403 0.859572 0.808247 0.161853
H26   H     H_    0.819784 0.612405 0.840035 0.363809
H27   H     H_    0.775772 0.770806 0.696570 0.162404
H28   H     H_    0.178548 0.678325 0.121521 0.154760
H29   H     H_    0.268666 0.718900 0.356722 0.140543
H30   H     H_    0.309329 0.104434 0.053062 0.371883
H31   H     H_    0.458235 0.566151 0.296077 0.145611
H32   H     H_    0.794433 0.262444 0.632907 0.145776
H33   H     H_    0.503374 0.330281 0.630770 0.213979
H34   H     H_    0.591469 0.181350 0.194146 0.147099
H35   H     H_    0.155371 0.985777 0.804934 0.159414
H36   H     H_    0.570399 0.150102 0.279782 0.130181
O1    O     O_R   0.296680 0.802170 0.437540 -0.512671
O2    O     O_R   0.637200 0.461990 0.052510 -0.477312
O3    O     O_R   0.664790 0.681920 0.057970 -0.505821
O4    O     O_R   0.525380 0.838530 0.443500 -0.508681
O5    O     O_R   0.815840 0.852920 0.961840 -0.494416
O6    O     O_R   0.012100 0.822630 0.963670 -0.494418
O7    O     O_R   0.037010 0.668460 0.953040 -0.463662
O8    O     O_R   0.813390 0.478970 0.949660 -0.432892
O9    O     O_R   0.632250 0.456930 0.945520 -0.528299
O10   O     O_R   0.660200 0.677230 0.958780 -0.495843
O11   O     O_3   0.830870 0.661990 0.006950 -0.288824
O12   O     O_R   0.662610 0.183990 0.557860 -0.498906
O13   O     O_R   0.702130 0.995190 0.446810 -0.507091
O14   O     O_R   0.661770 0.181390 0.458760 -0.496466
O15   O     O_R   0.499820 0.198480 0.455280 -0.502616
O16   O     O_R   0.311660 0.976250 0.449080 -0.503867
O17   O     O_R   0.297580 0.804960 0.544440 -0.466550
O18   O     O_R   0.526220 0.841130 0.542590 -0.477166
O19   O     O_R   0.703030 0.997990 0.553710 -0.506470
O20   O     O_2   0.746134 0.615381 0.354057 -0.209945
O21   O     O_2   0.848580 0.518487 0.383700 -0.289399
O22   O     O_3   0.950157 0.662534 0.320456 -0.430700
O23   O     O_R   0.500730 0.201280 0.562180 -0.499923
O24   O     O_2   0.965593 0.979204 0.175720 -0.270293
O25   O     O_2   0.988599 0.073844 0.257724 -0.322059
O26   O     O_3   0.133407 0.192884 0.194683 -0.372281
O27   O     O_2   0.331563 0.473606 0.160746 -0.257812
O28   O     O_2   0.500879 0.442454 0.170225 -0.251823
O29   O     O_3   0.350570 0.386023 0.238241 -0.464736
O30   O     O_2   0.941753 0.648667 0.217756 -0.296868
O31   O     O_2   0.758594 0.609942 0.175878 -0.293214
O32   O     O_3   0.797354 0.700982 0.264119 -0.433342
O33   O     O_2   0.972192 0.394258 0.897067 -0.254889
O34   O     O_R   0.312500 0.978850 0.548170 -0.495040
O35   O     O_2   0.798529 0.266128 0.940255 -0.271831
O36   O     O_3   0.846540 0.178634 0.862365 -0.557122
O37   O     O_2   0.444603 0.484347 0.667864 -0.207905
O38   O     O_2   0.304462 0.277595 0.666811 -0.317694
O39   O     O_3   0.306625 0.415392 0.739685 -0.452227
O40   O     O_2   0.121428 0.613884 0.639993 -0.276368
O41   O     O_2   0.311453 0.657964 0.677870 -0.222241
O42   O     O_3   0.117407 0.506481 0.713498 -0.447400
O43   O     O_2   0.312435 0.629620 0.779523 -0.192830
O44   O     O_2   0.287737 0.713399 0.857336 -0.304907
O45   O     O_3   0.499990 0.999990 0.500010 -0.273453
O46   O     O_3   0.103193 0.535155 0.814836 -0.459564
O47   O     O_2   0.886900 0.706701 0.752175 -0.275432
O48   O     O_2   0.919500 0.837515 0.825841 -0.326487
O49   O     O_3   0.756547 0.623363 0.825423 -0.532058
O50   O     O_2   0.112332 0.066253 0.101461 -0.202307
O51   O     O_2   0.300510 0.153309 0.149933 -0.203607
O52   O     O_3   0.280500 0.031756 0.068651 -0.552908
O53   O     O_R   0.820790 0.857990 0.068830 -0.463980
O54   O     O_R   0.016700 0.827330 0.062850 -0.434350
O55   O     O_R   0.041970 0.673520 0.060040 -0.521507
O56   O     O_R   0.817980 0.483660 0.048840 -0.486718
S1    S     S_3+6 0.821063 0.561160 0.339535 0.071487
S2    S     S_3+6 0.212489 0.048714 0.117924 0.077115
S3    S     S_3+6 0.054019 0.062029 0.214753 0.048380
S4    S     S_3+6 0.421439 0.478773 0.196693 0.036467
S5    S     S_3+6 0.812535 0.607986 0.223598 0.049832
S6    S     S_3+6 0.847312 0.295792 0.891054 0.010425
S7    S     S_3+6 0.386221 0.385496 0.698750 0.020709
S8    S     S_3+6 0.186869 0.631024 0.687549 0.092897
S9    S     S_3+6 0.229500 0.657598 0.808021 0.060128
S10   S     S_3+6 0.827809 0.737247 0.793105 -0.006842

loop_
_geom_bond_atom_site_label_1
_geom_bond_atom_site_label_2
_ccdc_geom_bond_type
C15   C18   A    
C66   C68   S    
C63   C65   A    
C28   O18   A    
C8    C83   S    
H30   O52   S    
C35   C36   A    
Cr4   O53   S    
C87   O8    A    
O33   S6    D    
Cr5   O55   S    
C7    C8    A    
O37   S7    D    
C20   H7    S    
O21   S1    D    
C53   C54   A    
C53   H18   S    
Cr5   O11   S    
C21   C31   A    
C12   C23   A    
C84   O2    A    
Cr5   O8    S    
O20   S1    D    
C12   H34   S    
C33   S4    S    
C75   H27   S    
Cr4   O11   S    
C32   H31   S    
C29   H13   S    
C35   C37   A    
C3    C7    A    
C30   C31   A    
C33   C35   A    
O49   S10   S    
O42   S8    S    
C56   C78   T    
Cr3   O16   S    
C42   C46   A    
H10   O29   S    
C27   C85   S    
O43   S9    D    
C76   S1    S    
C52   O34   A    
Cr6   O9    S    
C46   C47   A    
C1    O13   A    
C61   C66   A    
C9    C19   A    
H26   O49   S    
C11   C17   A    
Cr1   O4    S    
C74   S10   S    
C45   C56   S    
C52   O17   A    
C49   C51   A    
C29   C38   A    
C83   O54   A    
Cr3   O15   S    
C1    O4    A    
C9    C10   A    
C76   C88   A    
O36   S6    S    
C13   C14   A    
C83   O55   A    
C2    C6    A    
C43   H15   S    
Cr2   O19   S    
O29   S4    S    
C16   O1    A    
C88   S5    S    
Cr6   O10   S    
Cr5   O56   S    
C46   S6    S    
Cr6   O3    S    
C85   O53   A    
H11   O32   S    
C40   C58   S    
C74   C75   A    
C62   C66   A    
Cr2   O14   S    
C64   C67   T    
Cr3   O23   S    
C45   C88   A    
C24   C25   A    
O28   S4    D    
H19   O39   S    
Cr2   O45   S    
C26   H12   S    
Cr1   O17   S    
C63   H22   S    
Cr3   O45   S    
O32   S5    S    
C9    H6    S    
Cr6   O2    S    
C4    O15   A    
H14   O36   S    
C8    C18   A    
C60   C61   A    
C51   C53   A    
C47   C87   S    
C2    C89   A    
C43   C44   A    
O25   S3    D    
C37   H9    S    
C72   C77   A    
C19   C89   A    
C52   C59   S    
C42   C55   A    
C47   C57   A    
C20   C38   A    
Cr4   O5    S    
Cr1   O1    S    
C77   C81   S    
C23   C34   A    
C4    O14   A    
C72   H24   S    
O41   S8    D    
C73   C79   A    
C40   O23   A    
C87   O9    A    
C75   C77   A    
C90   O10   A    
C86   O7    A    
C59   C69   T    
C14   S3    S    
C1    C38   S    
O39   S7    S    
C48   C49   A    
O22   S1    S    
C85   O3    A    
C60   C65   A    
C73   H25   S    
C74   C79   A    
C40   O12   A    
C26   C27   A    
Cr4   O6    S    
O35   S6    D    
O52   S2    S    
C48   H33   S    
O40   S8    D    
C28   C71   S    
C42   C43   A    
C61   S9    S    
C70   C86   S    
O51   S2    D    
C44   H16   S    
C41   C50   A    
C90   O5    A    
H21   O46   S    
C60   S8    S    
H4    O22   S    
C15   C17   A    
C21   C25   A    
C54   C55   A    
C18   S2    S    
C24   H23   S    
C39   H32   S    
Cr2   O13   S    
C31   C36   A    
O27   S4    D    
O46   S9    S    
O38   S7    D    
Cr4   O54   S    
C72   C73   A    
C3    C5    A    
C10   C13   A    
C34   C67   S    
H5    O26   S    
Cr1   O18   S    
C57   H17   S    
C25   H8    S    
C48   C58   A    
C12   C45   A    
O47   S10   D    
C7    H28   S    
C22   C36   A    
C4    C64   S    
Cr5   O7    S    
C50   C55   A    
C82   C90   S    
O44   S9    D    
H20   O42   S    
C89   H29   S    
C32   C33   A    
Cr3   O34   S    
C51   S7    S    
O26   S3    S    
C6    H3    S    
Cr6   O11   S    
C30   C32   A    
C39   C58   A    
C16   O16   A    
C5    C6    A    
C27   C37   A    
C16   C19   S    
C65   C69   S    
Cr1   O45   S    
O30   S5    D    
C41   C44   A    
C80   C82   T    
C23   H36   S    
C3    C17   A    
C22   C24   A    
C13   H1    S    
Cr2   O12   S    
C84   O56   A    
O48   S10   D    
C10   C11   A    
C86   O6    A    
C29   C30   A    
C79   C80   S    
O24   S3    D    
C78   C84   S    
C5    H2    S    
C39   C41   A    
C28   O19   A    
C20   C21   A    
C49   C50   A    
C22   C26   A    
C68   C70   T    
O31   S5    D    
C14   C15   A    
C2    C11   A    
O50   S2    D    
C62   C63   A    
C62   H35   S    
C34   C76   A    
C71   C81   T    
C54   C57   A    
