data_mof_unit_pretest_1498.cif
_audit_creation_date              2012-12-10T18:22:29-0500
_audit_creation_method            fapswitch 2.2
_symmetry_space_group_name_H-M    P1
_symmetry_Int_Tables_number       1
_space_group_crystal_system       triclinic
_cell_length_a                    23.512288
_cell_length_b                    10.836517
_cell_length_c                    9.531228
_cell_angle_alpha                 92.840118
_cell_angle_beta                  91.08207
_cell_angle_gamma                 92.347807
_cell_volume                      2422.92280315

loop_
_atom_site_label
_atom_site_type_symbol
_atom_type_description
_atom_site_fract_x
_atom_site_fract_y
_atom_site_fract_z
_atom_type_partial_charge
C1    C     C_R   0.494481 0.259581 0.496791 0.872247
C2    C     C_R   0.501358 0.740598 0.503549 0.874604
C3    C     C_R   0.238475 0.580870 0.541299 -0.135305
C4    C     C_R   0.757064 0.384045 0.472699 -0.120148
C5    C     C_R   0.297702 0.590865 0.541868 -0.296005
C6    C     C_R   0.697902 0.386587 0.469550 -0.311049
C7    C     C_R   0.329031 0.490023 0.497024 -0.135964
C8    C     C_R   0.670962 0.496739 0.502174 -0.141393
C9    C     C_R   0.300651 0.376279 0.459536 0.214430
C10   C     C_R   0.703944 0.606598 0.528742 0.220911
C11   C     C_R   0.241319 0.362417 0.472354 0.322141
C12   C     C_R   0.763381 0.606970 0.516333 0.300856
C13   C     C_R   0.209483 0.466853 0.507662 0.229011
C14   C     C_R   0.790503 0.493950 0.494533 0.230786
C15   C     C_3   0.544044 0.056291 0.553458 0.081278
C16   C     C_3   0.447550 0.942142 0.450493 0.058654
C17   C     C_3   0.539949 0.961277 0.425867 0.276745
C18   C     C_3   0.451327 0.037670 0.576457 0.249378
C19   C     C_3   0.499474 0.878053 0.509781 -0.205383
C20   C     C_3   0.492082 0.121123 0.493158 -0.195707
C21   C     C_3   0.502988 0.973155 0.636703 0.076795
C22   C     C_3   0.487775 0.025347 0.366837 0.087616
C23   C     C_R   0.391399 0.500778 0.499096 0.848838
C24   C     C_R   0.608561 0.497512 0.500795 0.861842
C25   C     C_3   0.502952 0.612419 0.057296 -0.100503
C26   C     C_3   0.497776 0.387748 0.942223 -0.102193
C27   C     C_3   0.457257 0.556756 0.951947 0.219299
C28   C     C_3   0.543189 0.443589 0.047984 0.223418
C29   C     C_3   0.545735 0.554479 0.955546 0.191971
C30   C     C_3   0.454730 0.445177 0.043838 0.189704
C31   C     C_R   0.882681 0.537156 0.608766 0.588014
C32   C     C_R   0.117236 0.417018 0.393403 0.589763
C33   C     C_R   0.878060 0.437727 0.380283 0.559569
C34   C     C_R   0.121079 0.503962 0.627150 0.554974
C35   C     C_R   0.938187 0.428836 0.379385 -0.058471
C36   C     C_R   0.061856 0.526498 0.621987 -0.080488
C37   C     C_R   0.970133 0.481744 0.497726 -0.080759
C38   C     C_R   0.029794 0.473559 0.504446 -0.081792
C39   C     C_R   0.942547 0.546927 0.606797 -0.080567
C40   C     C_R   0.057397 0.408055 0.395632 -0.055138
C41   C     C_R   0.967314 0.365930 0.268004 0.113320
C42   C     C_R   0.034550 0.604636 0.724006 0.104874
C43   C     C_R   0.024785 0.337502 0.291297 0.126580
C44   C     C_R   0.975011 0.622650 0.708049 0.130127
Cu1   Cu    Cu3+1 0.500010 0.499990 0.643150 0.941298
Cu2   Cu    Cu3+1 0.499990 0.500010 0.356850 0.945648
H1    H     H_    0.505312 0.706960 0.107986 0.155812
H2    H     H_    0.495284 0.294442 0.888750 0.148912
H3    H     H_    0.214961 0.661831 0.570209 0.171622
H4    H     H_    0.776979 0.296483 0.454639 0.185945
H5    H     H_    0.318819 0.677605 0.576743 0.163066
H6    H     H_    0.673456 0.302166 0.442161 0.165786
N1    N     N_R   0.851909 0.490127 0.494042 -0.438717
N2    N     N_R   0.147897 0.459501 0.510266 -0.439691
N3    N     N_3   0.500040 0.499970 0.858290 -0.217959
N4    N     N_3   0.499960 0.500030 0.141710 -0.217598
O1    O     O_R   0.500030 0.316850 0.620870 -0.575398
O2    O     O_R   0.499970 0.683150 0.379130 -0.566992
O3    O     O_R   0.500000 0.316860 0.379090 -0.597964
O4    O     O_R   0.500000 0.683140 0.620910 -0.600948
O5    O     O_R   0.417890 0.499960 0.620920 -0.581896
O6    O     O_R   0.582110 0.500040 0.379080 -0.577984
O7    O     O_R   0.417870 0.499970 0.379140 -0.588555
O8    O     O_R   0.582130 0.500030 0.620860 -0.592044
O9    O     O_2   0.855114 0.570344 0.726472 -0.537353
O10   O     O_2   0.144518 0.389221 0.273554 -0.525889
O11   O     O_2   0.845280 0.391614 0.271154 -0.546903
O12   O     O_2   0.152138 0.524839 0.746700 -0.534843
C45   C     C_3   0.939679 0.332561 0.123473 -0.361552
C46   C     C_3   0.923565 0.446954 0.046335 -0.716756
H7    H     H_    0.904187 0.517742 0.116087 0.270711
H8    H     H_    0.962113 0.489669 0.000516 0.230172
H9    H     H_    0.893085 0.419326 0.958892 0.268608
H10   H     H_    0.968779 0.285785 0.050349 0.177875
H11   H     H_    0.902877 0.266288 0.132216 0.247080
C47   C     C_3   0.069433 0.677678 0.840188 -0.357796
C48   C     C_3   0.079877 0.600849 0.968671 -0.667449
H12   H     H_    0.045279 0.611198 0.045010 0.202596
H13   H     H_    0.082531 0.500853 0.939207 0.277330
H14   H     H_    0.120256 0.633977 0.022962 0.256024
H15   H     H_    0.110191 0.713500 0.797999 0.224961
H16   H     H_    0.050126 0.763944 0.877801 0.187664
C49   C     C_3   0.406394 0.624691 0.895271 -0.362124
C50   C     C_3   0.381012 0.710205 0.007256 -0.882212
H17   H     H_    0.369068 0.658821 0.100818 0.258641
H18   H     H_    0.412057 0.786692 0.039104 0.238417
H19   H     H_    0.342295 0.750989 0.963773 0.273385
H20   H     H_    0.420181 0.681106 0.807330 0.226010
H21   H     H_    0.372880 0.556149 0.855399 0.230224
C51   C     C_3   0.596425 0.384493 0.105930 -0.350018
C52   C     C_3   0.624740 0.298871 0.998585 -0.880946
H22   H     H_    0.594431 0.224898 0.956947 0.241787
H23   H     H_    0.641354 0.350124 0.909531 0.258270
H24   H     H_    0.660966 0.254993 0.050042 0.274739
H25   H     H_    0.627986 0.457361 0.144145 0.231118
H26   H     H_    0.584978 0.332819 0.198064 0.226526
C53   C     C_3   0.600341 0.613128 0.898040 -0.383643
C54   C     C_3   0.636606 0.689150 0.008060 -0.778356
H27   H     H_    0.609488 0.737272 0.084430 0.283949
H28   H     H_    0.665570 0.629983 0.065041 0.262058
H29   H     H_    0.663423 0.759091 0.955510 0.279460
H30   H     H_    0.627008 0.541110 0.850930 0.235250
H31   H     H_    0.587797 0.671689 0.812916 0.252858
C55   C     C_3   0.402034 0.377988 0.098306 -0.391657
C56   C     C_3   0.372972 0.290278 0.987014 -0.753934
H32   H     H_    0.363984 0.338657 0.889591 0.276825
H33   H     H_    0.400659 0.211820 0.963156 0.262059
H34   H     H_    0.332211 0.252669 0.027698 0.282849
H35   H     H_    0.415832 0.323143 0.186372 0.261076
H36   H     H_    0.371277 0.446047 0.136832 0.234374
C57   C     C_3   0.046852 0.215167 0.230834 -0.383855
C58   C     C_3   0.056768 0.125718 0.347225 -0.742447
H37   H     H_    0.085042 0.168132 0.431999 0.281803
H38   H     H_    0.015496 0.098310 0.394029 0.236076
H39   H     H_    0.076442 0.041314 0.302817 0.251810
H40   H     H_    0.016133 0.163922 0.158155 0.181595
H41   H     H_    0.085878 0.229313 0.169629 0.265891
C59   C     C_3   0.949592 0.742280 0.766860 -0.335035
C60   C     C_3   0.932563 0.741315 0.921046 -0.752908
H42   H     H_    0.897181 0.673318 0.936150 0.297900
H43   H     H_    0.968497 0.720815 0.991016 0.227860
H44   H     H_    0.917743 0.833978 0.954552 0.241520
H45   H     H_    0.979575 0.822080 0.751673 0.169414
H46   H     H_    0.911784 0.765489 0.703690 0.255888
Br1   Br    Br    0.343101 0.239611 0.392470 -0.540657
Br2   Br    Br    0.667985 0.755425 0.583572 -0.514148
Br3   Br    Br    0.205567 0.199196 0.455086 -0.448894
Br4   Br    Br    0.806531 0.762314 0.517434 -0.454448
Br5   Br    Br    0.602087 0.901308 0.314741 -0.547649
Br6   Br    Br    0.387423 0.088761 0.687564 -0.542970
C61   C     C_3   0.595176 0.138108 0.612703 -0.389718
C62   C     C_3   0.652486 0.077893 0.616406 -0.689816
H47   H     H_    0.651411 0.997200 0.681989 0.288637
H48   H     H_    0.666262 0.051499 0.509096 0.301781
H49   H     H_    0.684955 0.145711 0.663581 0.224891
H50   H     H_    0.600262 0.219063 0.547499 0.176374
H51   H     H_    0.584987 0.173909 0.719649 0.211677
C63   C     C_3   0.396380 0.859936 0.394650 -0.423822
C64   C     C_3   0.345267 0.929490 0.346987 -0.659145
H52   H     H_    0.326951 0.981059 0.437352 0.323095
H53   H     H_    0.357120 0.992489 0.263322 0.262732
H54   H     H_    0.311958 0.861998 0.303169 0.227334
H55   H     H_    0.410193 0.800168 0.304885 0.210212
H56   H     H_    0.383137 0.799272 0.479038 0.190564
C65   C     C_3   0.504594 0.947740 0.792625 -0.363211
C66   C     C_3   0.563227 0.915339 0.842637 -0.829954
H57   H     H_    0.584233 0.860721 0.759577 0.295637
H58   H     H_    0.589738 0.000274 0.870242 0.252083
H59   H     H_    0.558950 0.861269 0.937496 0.250956
H60   H     H_    0.491454 0.030874 0.854370 0.218120
H61   H     H_    0.473537 0.870880 0.811380 0.221562
C67   C     C_3   0.474083 0.051347 0.214964 -0.354390
C68   C     C_3   0.526080 0.102650 0.144042 -0.802070
H62   H     H_    0.555568 0.150816 0.221891 0.275719
H63   H     H_    0.549363 0.026825 0.093990 0.277574
H64   H     H_    0.512607 0.165546 0.063585 0.227591
H65   H     H_    0.458568 0.964918 0.156791 0.198839
H66   H     H_    0.439848 0.118498 0.212978 0.229312

loop_
_geom_bond_atom_site_label_1
_geom_bond_atom_site_label_2
_ccdc_geom_bond_type
C38   C40   A    
Cu1   O4    S    
Cu2   O3    S    
C18   C21   S    
C11   C13   A    
C36   C42   A    
C57   C58   S    
C50   H19   S    
C26   N3    S    
C58   H38   S    
C65   C66   S    
C28   N4    S    
C51   H25   S    
Cu1   Cu2   S    
C56   H33   S    
Cu1   O1    S    
C43   C57   S    
Cu2   O6    S    
C32   O10   S    
C28   C29   S    
C35   C37   A    
C50   H18   S    
C13   N2    S    
C63   H55   S    
C1    O3    A    
C55   H35   S    
C64   H54   S    
C2    O4    A    
C48   H14   S    
C18   C20   S    
C31   O9    S    
C59   C60   S    
C58   H37   S    
C8    C24   S    
C50   H17   S    
C40   C43   A    
C62   H47   S    
C24   O6    A    
C25   N4    S    
C46   H7    S    
C68   H63   S    
C25   H1    S    
C66   H58   S    
C65   H60   S    
C3    C13   A    
C26   H2    S    
C23   O7    A    
C49   H20   S    
C24   O8    A    
Cu2   O2    S    
C27   C30   S    
C25   C29   S    
C41   C43   A    
C42   C44   A    
C32   N2    A    
C55   C56   S    
C53   C54   S    
C67   H66   S    
C60   H43   S    
C33   N1    A    
C15   C20   S    
C49   H21   S    
C56   H34   S    
C22   C67   S    
C53   H31   S    
C17   Br5   S    
C3    H3    S    
C47   C48   S    
C4    C6    A    
C61   H50   S    
C34   O12   S    
C52   H22   S    
C5    C7    A    
C17   C19   S    
C6    C8    A    
C29   N3    S    
C48   H12   S    
C30   N4    S    
C9    Br1   S    
C4    H4    S    
C21   C65   S    
C11   Br3   S    
C37   C38   A    
C61   H51   S    
C1    O1    A    
C52   H23   S    
C66   H59   S    
C49   C50   S    
C44   C59   S    
C60   H42   S    
C46   H9    S    
C48   H13   S    
C45   H10   S    
C59   H46   S    
C31   N1    A    
C68   H64   S    
C9    C11   A    
C65   H61   S    
C10   C12   A    
C62   H48   S    
C8    C10   A    
C12   C14   A    
C26   C30   S    
C54   H28   S    
C18   Br6   S    
C47   H16   S    
C61   C62   S    
C33   O11   S    
C41   C45   S    
C66   H57   S    
C60   H44   S    
C15   C17   S    
C67   H65   S    
C1    C20   S    
C16   C22   S    
Cu1   O8    S    
C19   C21   S    
C2    C19   S    
C42   C47   S    
C16   C63   S    
C53   H30   S    
C20   C22   S    
C3    C5    A    
Cu2   N4    S    
C47   H15   S    
C46   H8    S    
C64   H52   S    
C2    O2    A    
C51   H26   S    
C39   C44   A    
C12   Br4   S    
C25   C27   S    
C54   H29   S    
C56   H32   S    
C27   N3    S    
C26   C28   S    
C17   C22   S    
C29   C53   S    
Cu2   O7    S    
C57   H41   S    
C57   H40   S    
C36   C38   A    
C37   C39   A    
C63   H56   S    
C52   H24   S    
C55   H36   S    
C64   H53   S    
C34   N2    A    
C51   C52   S    
C15   C21   S    
C62   H49   S    
C7    C23   S    
Cu1   O5    S    
C33   C35   A    
C31   C39   A    
C45   H11   S    
C34   C36   A    
C59   H45   S    
C32   C40   A    
C4    C14   A    
C45   C46   S    
C35   C41   A    
C63   C64   S    
C27   C49   S    
C7    C9    A    
C23   O5    A    
C14   N1    S    
C15   C61   S    
C67   C68   S    
Cu1   N3    S    
C16   C18   S    
C54   H27   S    
C30   C55   S    
C5    H5    S    
C28   C51   S    
C6    H6    S    
C68   H62   S    
C10   Br2   S    
C58   H39   S    
C16   C19   S    
