data_mof_unit_pretest_305.cif
_audit_creation_date              2012-12-11T14:56:42-0500
_audit_creation_method            fapswitch 2.2
_symmetry_space_group_name_H-M    P1
_symmetry_Int_Tables_number       1
_space_group_crystal_system       triclinic
_cell_length_a                    10.593657
_cell_length_b                    10.662327
_cell_length_c                    17.106851
_cell_angle_alpha                 81.101362
_cell_angle_beta                  89.5602
_cell_angle_gamma                 119.301346
_cell_volume                      1656.95524383

loop_
_atom_site_label
_atom_site_type_symbol
_atom_type_description
_atom_site_fract_x
_atom_site_fract_y
_atom_site_fract_z
_atom_type_partial_charge
C1    C     C_R   0.277510 0.888685 0.132831 0.565481
C2    C     C_1   0.651975 0.347391 0.707789 -0.053399
C3    C     C_R   0.592454 0.709255 0.801667 -0.189231
C4    C     C_R   0.637632 0.280673 0.086931 0.562408
C5    C     C_R   0.579267 0.703820 0.722802 -0.125756
C6    C     C_R   0.668974 0.826860 0.665391 0.018638
C7    C     C_R   0.776919 0.955130 0.688694 -0.142190
C8    C     C_R   0.790031 0.960621 0.769676 0.228860
C9    C     C_R   0.688686 0.841023 0.825365 0.048788
C10   C     C_R   0.078407 0.863568 0.791398 -0.144649
C11   C     C_R   0.059600 0.860514 0.712366 -0.167687
C12   C     C_R   0.759173 0.314853 0.283882 0.241267
C13   C     C_R   0.130775 0.810155 0.667393 0.047941
C14   C     C_R   0.215399 0.753892 0.702606 0.237335
C15   C     C_R   0.236548 0.759572 0.782534 -0.124704
C16   C     C_R   0.640410 0.858768 0.125357 0.545973
C17   C     C_R   0.170452 0.818335 0.825973 -0.022405
C18   C     C_R   0.686743 0.809051 0.357154 0.598689
C19   C     C_R   0.683338 0.384876 0.398504 0.575641
C20   C     C_R   0.107676 0.811932 0.359854 0.551589
C21   C     C_R   0.677952 0.801312 0.585547 0.584045
C22   C     C_R   0.679439 0.383903 0.624642 0.553848
C23   C     C_R   0.778341 0.352997 0.201506 0.245917
C24   C     C_R   0.096929 0.802032 0.586771 0.573654
C25   C     C_R   0.221708 0.860082 0.900468 0.566878
C26   C     C_R   0.637405 0.284629 0.861120 0.547985
C27   C     C_R   0.647913 0.864080 0.900628 0.564495
C28   C     C_R   0.537025 0.327343 0.202741 -0.187959
C29   C     C_R   0.538209 0.332062 0.283470 -0.187036
C30   C     C_R   0.650040 0.327040 0.324744 -0.031482
C31   C     C_3   0.203007 0.553894 0.662758 -0.006641
C32   C     C_3   0.223391 0.510085 0.584826 -0.308901
C33   C     C_3   0.936168 0.207290 0.769316 0.008718
C34   C     C_R   0.657034 0.337135 0.161028 -0.022008
C35   C     C_3   0.025374 0.303604 0.827710 -0.327718
C36   C     C_1   0.669006 0.848965 0.205396 0.006070
C37   C     C_1   0.679947 0.838201 0.274875 0.025122
C38   C     C_1   0.226045 0.854177 0.215336 0.020584
C39   C     C_1   0.177565 0.833578 0.282971 0.008094
C40   C     C_1   0.644475 0.324984 0.778392 -0.056515
Cr1   Cr    Cr6+3 0.402240 0.783890 0.019450 1.062678
Cr2   Cr    Cr6+3 0.382360 0.097900 0.991800 1.042441
Cr3   Cr    Cr6+3 0.715380 0.118170 0.988700 1.062634
Cr4   Cr    Cr6+3 0.936650 0.882420 0.465510 1.081820
Cr5   Cr    Cr6+3 0.605770 0.565620 0.493360 1.012170
Cr6   Cr    Cr6+3 0.921340 0.550490 0.496380 1.057122
H1    H     H_    0.443117 0.316307 0.173040 0.174682
H2    H     H_    0.239739 0.500355 0.710670 0.113961
H3    H     H_    0.321030 0.497619 0.583310 0.158462
H4    H     H_    0.128350 0.403015 0.579543 0.075166
H5    H     H_    0.233940 0.592725 0.533092 0.193552
H6    H     H_    0.063193 0.321966 0.388699 0.341290
H7    H     H_    0.039769 0.552004 0.030051 0.360248
H8    H     H_    0.832463 0.209532 0.765766 0.158688
H9    H     H_    0.997721 0.250562 0.709667 0.112880
H10   H     H_    0.136596 0.318149 0.824597 0.126264
H11   H     H_    0.031802 0.411879 0.814339 0.090317
H12   H     H_    0.989561 0.898294 0.685803 0.156171
H13   H     H_    0.974585 0.251477 0.889470 0.206240
H14   H     H_    0.310852 0.726583 0.808844 0.148738
H15   H     H_    0.452523 0.339796 0.313476 0.170023
H16   H     H_    0.518101 0.612634 0.844167 0.142963
H17   H     H_    0.502326 0.599909 0.707309 0.153631
H18   H     H_    0.857410 0.044522 0.644777 0.128909
H19   H     H_    0.026950 0.907212 0.824882 0.196063
H20   H     H_    0.083965 0.511011 0.675547 0.137171
O1    O     O_R   0.521780 0.757110 0.108900 -0.508570
O2    O     O_R   0.805020 0.410040 0.421340 -0.425772
O3    O     O_R   0.049240 0.685450 0.403290 -0.473192
O4    O     O_R   0.275160 0.783810 0.101120 -0.429419
O5    O     O_R   0.077520 0.903010 0.551800 -0.534282
O6    O     O_R   0.802980 0.872780 0.546830 -0.500359
O7    O     O_R   0.578090 0.681300 0.569920 -0.523411
O8    O     O_R   0.608530 0.436370 0.586530 -0.506393
O9    O     O_R   0.798770 0.401880 0.597100 -0.529706
O10   O     O_R   0.043450 0.677890 0.566230 -0.508427
O11   O     O_3   0.821250 0.666180 0.485090 -0.281570
O12   O     O_R   0.513330 0.228330 0.898660 -0.495574
O13   O     O_R   0.237900 0.972600 0.090980 -0.491972
O14   O     O_R   0.511190 0.220540 0.061620 -0.531513
O15   O     O_R   0.736920 0.257720 0.063840 -0.445820
O16   O     O_R   0.710450 0.984050 0.081720 -0.479037
O17   O     O_R   0.524090 0.765520 0.933110 -0.541251
O18   O     O_R   0.277300 0.791600 0.938160 -0.516998
O19   O     O_R   0.240210 0.981010 0.915190 -0.494701
O20   O     O_3   0.287522 0.707195 0.657154 -0.555454
O21   O     O_2   0.773203 0.135327 0.408324 -0.312397
O22   O     O_2   0.896531 0.158739 0.280871 -0.249472
O23   O     O_R   0.739230 0.266130 0.888050 -0.536152
O24   O     O_3   0.017820 0.373364 0.357906 -0.460166
O25   O     O_2   0.067111 0.525215 0.203467 -0.220694
O26   O     O_2   0.988616 0.323829 0.130213 -0.247008
O27   O     O_3   0.966946 0.550336 0.067466 -0.526598
O28   O     O_3   0.913437 0.065984 0.796573 -0.574716
O29   O     O_R   0.712580 0.991850 0.918770 -0.471384
O30   O     O_3   0.499990 0.999980 0.999980 -0.297774
O31   O     O_R   0.083770 0.911170 0.376030 -0.500973
O32   O     O_R   0.808770 0.880340 0.383890 -0.430376
O33   O     O_R   0.584340 0.689460 0.394160 -0.524638
O34   O     O_R   0.614320 0.443940 0.423590 -0.515915
S1    S     S_3+6 0.861296 0.239639 0.333772 0.064857
S2    S     S_3+6 0.956307 0.437825 0.151112 0.082802

loop_
_geom_bond_atom_site_label_1
_geom_bond_atom_site_label_2
_ccdc_geom_bond_type
C33   H9    S    
C31   H20   S    
C28   H1    S    
Cr2   O14   S    
C11   C13   A    
C15   H14   S    
C27   O29   A    
C33   O28   S    
Cr6   O10   S    
O22   S1    D    
C7    C8    A    
Cr1   O1    S    
C26   O23   A    
C12   C23   A    
Cr3   O23   S    
O24   S1    S    
Cr2   O30   S    
C35   H13   S    
C36   C37   T    
C18   C37   S    
C4    O14   A    
C38   C39   T    
C10   H19   S    
Cr1   O30   S    
C10   C17   A    
Cr1   O17   S    
C21   O7    A    
C5    H17   S    
Cr4   O5    S    
Cr5   O7    S    
Cr6   O3    S    
O21   S1    D    
Cr4   O32   S    
C20   O31   A    
C8    C9    A    
C2    C22   S    
C25   O18   A    
Cr3   O29   S    
C11   H12   S    
O26   S2    D    
C28   C34   A    
Cr2   O13   S    
C31   O20   S    
C13   C14   A    
C22   O9    A    
C16   O16   A    
Cr6   O9    S    
C4    C34   S    
C7    H18   S    
C29   H15   S    
C4    O15   A    
C21   O6    A    
H7    O27   S    
C8    O28   S    
C14   O20   S    
H6    O24   S    
Cr5   O33   S    
C16   O1    A    
C20   C39   S    
C24   O10   A    
C6    C21   S    
C13   C24   S    
Cr5   O8    S    
C32   H5    S    
Cr6   O2    S    
C29   C30   A    
C3    C9    A    
Cr4   O31   S    
C31   C32   S    
C23   C34   A    
C25   O19   A    
Cr3   O30   S    
C19   O2    A    
Cr2   O19   S    
C26   O12   A    
C32   H4    S    
C1    C38   S    
Cr2   O12   S    
C31   H2    S    
C1    O13   A    
C20   O3    A    
C18   O33   A    
C22   O8    A    
O25   S2    D    
C9    C27   S    
C3    H16   S    
C33   H8    S    
C15   C17   A    
C28   C29   A    
C12   C30   A    
C35   H10   S    
C3    C5    A    
Cr5   O34   S    
O27   S2    S    
Cr6   O11   S    
C19   O34   A    
C6    C7    A    
Cr4   O11   S    
C1    O4    A    
C35   H11   S    
C17   C25   S    
C27   O17   A    
C12   S1    S    
C16   C36   S    
Cr1   O18   S    
C26   C40   S    
C5    C6    A    
Cr3   O15   S    
C33   C35   S    
Cr4   O6    S    
C32   H3    S    
C10   C11   A    
C23   S2    S    
C2    C40   T    
Cr3   O16   S    
C14   C15   A    
Cr5   O11   S    
C18   O32   A    
C19   C30   S    
C24   O5    A    
Cr1   O4    S    
