data_mof_unit_pretest_1653.cif
_audit_creation_date              2012-10-26T20:34:20-0400
_audit_creation_method            fapswitch 2.2
_symmetry_space_group_name_H-M    P1
_symmetry_Int_Tables_number       1
_space_group_crystal_system       triclinic
_cell_length_a                    15.989541
_cell_length_b                    14.776243
_cell_length_c                    10.647462
_cell_angle_alpha                 89.777073
_cell_angle_beta                  90.171666
_cell_angle_gamma                 90.147605
_cell_volume                      2515.58765955

loop_
_atom_site_label
_atom_site_type_symbol
_atom_type_description
_atom_site_fract_x
_atom_site_fract_y
_atom_site_fract_z
_atom_type_partial_charge
C1    C     C_R   0.340856 0.499910 0.500216 0.542586
C2    C     C_R   0.087225 0.499904 0.500177 0.040489
C3    C     C_R   0.499431 0.500216 0.258833 0.542465
C4    C     C_R   0.500571 0.499784 0.741167 0.542469
C5    C     C_1   0.251740 0.499765 0.500361 -0.037618
C6    C     C_1   0.748260 0.500236 0.499615 -0.037619
C7    C     C_R   0.497397 0.951794 0.613211 -0.111771
C8    C     C_R   0.502603 0.048206 0.386788 -0.111771
C9    C     C_R   0.502588 0.952442 0.386789 -0.111777
C10   C     C_R   0.497412 0.047558 0.613211 -0.111778
C11   C     C_R   0.499986 0.902859 0.500000 0.003573
C12   C     C_R   0.659144 0.500090 0.499778 0.542583
C13   C     C_R   0.500014 0.097141 0.499999 0.003573
C14   C     C_3   0.487982 0.585598 0.040125 -0.114052
C15   C     C_3   0.512024 0.414402 0.959876 -0.114039
C16   C     C_3   0.562323 0.553982 0.958190 -0.122939
C17   C     C_3   0.437682 0.446018 0.041810 -0.122927
C18   C     C_3   0.427042 0.530498 0.957859 -0.003251
C19   C     C_3   0.572963 0.469503 0.042142 -0.003250
C20   C     C_3   0.500513 0.499314 0.877542 0.032996
C21   C     C_3   0.499492 0.500687 0.122459 0.032997
C22   C     C_1   0.499991 0.802698 0.500001 0.117449
C23   C     C_1   0.823317 0.500207 0.499607 -0.065296
C24   C     C_1   0.500009 0.197301 0.499999 0.117449
C25   C     C_3   0.343994 0.564497 0.904596 -0.248886
C26   C     C_3   0.282600 0.587711 0.009749 -0.300440
C27   C     C_3   0.199319 0.620314 0.956156 -0.451280
C28   C     C_3   0.656017 0.435526 0.095412 -0.248894
C29   C     C_3   0.717401 0.412267 0.990264 -0.300424
C30   C     C_3   0.800730 0.379816 0.043867 -0.451289
C31   C     C_1   0.176683 0.499796 0.500356 -0.065297
C32   C     C_R   0.956491 0.502617 0.613831 -0.107652
C33   C     C_R   0.043509 0.497391 0.386126 -0.107652
C34   C     C_R   0.043767 0.502537 0.614028 -0.107455
C35   C     C_R   0.956233 0.497470 0.385929 -0.107455
C36   C     C_R   0.912775 0.500103 0.499780 0.040489
Cu1   Cu    Cu3+1 0.500000 0.589220 0.500000 0.968309
Cu2   Cu    Cu3+1 0.500000 0.410780 0.500000 0.968312
H1    H     H_    0.495382 0.082947 0.702037 0.104459
H2    H     H_    0.922715 0.495502 0.297378 0.099668
H3    H     H_    0.923167 0.504625 0.702251 0.103752
H4    H     H_    0.076833 0.495382 0.297706 0.103750
H5    H     H_    0.208769 0.682150 0.898193 0.157004
H6    H     H_    0.170297 0.566711 0.897408 0.147373
H7    H     H_    0.156081 0.636605 0.034243 0.143537
H8    H     H_    0.271093 0.526919 0.069120 0.160577
H9    H     H_    0.309589 0.641752 0.069995 0.165422
H10   H     H_    0.356125 0.625533 0.846049 0.157688
H11   H     H_    0.316767 0.510977 0.843717 0.142777
H12   H     H_    0.504618 0.917053 0.297962 0.104459
H13   H     H_    0.829720 0.433518 0.102473 0.147353
H14   H     H_    0.791358 0.318036 0.101974 0.157015
H15   H     H_    0.843959 0.363485 0.965784 0.143536
H16   H     H_    0.690441 0.358131 0.930153 0.165395
H17   H     H_    0.728834 0.473006 0.930756 0.160603
H18   H     H_    0.683247 0.489076 0.156238 0.142788
H19   H     H_    0.643897 0.374515 0.154015 0.157681
H20   H     H_    0.504646 0.084103 0.297962 0.105120
H21   H     H_    0.495354 0.915897 0.702038 0.105119
H22   H     H_    0.477519 0.655304 0.075188 0.117484
H23   H     H_    0.522488 0.344696 0.924813 0.117483
H24   H     H_    0.613395 0.597487 0.921203 0.109031
H25   H     H_    0.386610 0.402514 0.078798 0.109029
H26   H     H_    0.077284 0.504505 0.702579 0.099668
N1    N     N_1   0.500000 0.276710 0.500000 -0.196033
N2    N     N_1   0.500000 0.723290 0.500000 -0.196033
O1    O     O_R   0.380310 0.575320 0.500020 -0.492062
O2    O     O_R   0.619690 0.424680 0.499980 -0.492064
O3    O     O_R   0.619690 0.575320 0.499980 -0.488313
O4    O     O_R   0.380310 0.424680 0.500020 -0.488312
O5    O     O_R   0.499980 0.575330 0.316850 -0.501551
O6    O     O_R   0.500020 0.424670 0.683150 -0.501546
O7    O     O_R   0.500020 0.575330 0.683150 -0.501390
O8    O     O_R   0.499980 0.424670 0.316850 -0.501393

loop_
_geom_bond_atom_site_label_1
_geom_bond_atom_site_label_2
_ccdc_geom_bond_type
C7    C10   A    
C30   H13   S    
Cu2   O4    S    
C8    C13   A    
Cu1   O3    S    
C14   C18   S    
C35   C36   A    
C12   O3    A    
C28   H18   S    
C28   H19   S    
C15   C19   S    
C12   O2    A    
C26   C27   S    
Cu1   Cu2   S    
C1    C5    S    
C33   H4    S    
C32   C36   A    
C14   C21   S    
C28   C29   S    
C19   C21   S    
C6    C12   S    
C33   C35   A    
C29   H16   S    
C3    O8    A    
C22   N2    T    
C30   H14   S    
C8    H20   S    
C27   H6    S    
C8    C9    A    
C32   H3    S    
C2    C34   A    
C18   C25   S    
C16   H24   S    
C7    H21   S    
C7    C11   A    
C15   C20   S    
C30   H15   S    
Cu2   O6    S    
C29   H17   S    
C25   C26   S    
C17   C21   S    
C13   C24   S    
C2    C31   S    
C32   C34   A    
C3    O5    A    
C29   C30   S    
Cu2   N1    S    
C16   C20   S    
Cu1   N2    S    
C34   H26   S    
C17   C18   S    
C15   H23   S    
C19   C28   S    
C9    C11   A    
C25   H10   S    
C4    O7    A    
C26   H9    S    
C24   N1    T    
C2    C33   A    
Cu2   O2    S    
Cu1   O5    S    
C14   C16   S    
C3    C21   S    
C4    O6    A    
Cu2   O8    S    
C15   C17   S    
Cu1   O7    S    
C9    H12   S    
C10   C13   A    
C14   H22   S    
C11   C22   S    
C1    O4    A    
C35   H2    S    
C17   H25   S    
C27   H7    S    
C16   C19   S    
C6    C23   T    
Cu1   O1    S    
C1    O1    A    
C18   C20   S    
C25   H11   S    
C26   H8    S    
C4    C20   S    
C27   H5    S    
C23   C36   S    
C10   H1    S    
C5    C31   T    
