data_mof_unit_pretest_8.cif
_audit_creation_date              2012-12-10T18:04:42-0500
_audit_creation_method            fapswitch 2.2
_symmetry_space_group_name_H-M    P1
_symmetry_Int_Tables_number       1
_space_group_crystal_system       triclinic
_cell_length_a                    19.297189
_cell_length_b                    17.767503
_cell_length_c                    12.66206
_cell_angle_alpha                 90.828997
_cell_angle_beta                  98.919109
_cell_angle_gamma                 89.82817
_cell_volume                      4288.40529491

loop_
_atom_site_label
_atom_site_type_symbol
_atom_type_description
_atom_site_fract_x
_atom_site_fract_y
_atom_site_fract_z
_atom_type_partial_charge
C1    C     C_R   0.407199 0.098307 0.441765 0.866852
C2    C     C_R   0.684103 0.682509 0.574561 0.171552
C3    C     C_R   0.285105 0.708183 0.643415 0.170099
C4    C     C_R   0.184103 0.182509 0.574561 0.171552
C5    C     C_R   0.352048 0.738855 0.667384 -0.260383
C6    C     C_R   0.215544 0.111702 0.576502 -0.244514
C7    C     C_R   0.852047 0.238855 0.667384 -0.260383
C8    C     C_R   0.715544 0.611702 0.576502 -0.244514
C9    C     C_R   0.379896 0.778091 0.589894 -0.188736
C10   C     C_R   0.269255 0.098349 0.516808 -0.192405
C11   C     C_R   0.879896 0.278091 0.589894 -0.188736
C12   C     C_R   0.412096 0.896130 0.444334 0.853825
C13   C     C_R   0.769255 0.598349 0.516808 -0.192405
C14   C     C_R   0.678597 0.188586 0.519029 -0.242386
C15   C     C_R   0.675761 0.809268 0.507918 -0.215302
C16   C     C_R   0.178596 0.688586 0.519029 -0.242386
C17   C     C_R   0.175761 0.309268 0.507918 -0.215303
C18   C     C_R   0.687599 0.142335 0.699211 -0.201573
C19   C     C_R   0.609428 0.773609 0.646450 -0.206595
C20   C     C_R   0.187599 0.642335 0.699211 -0.201573
C21   C     C_R   0.109428 0.273609 0.646450 -0.206595
C22   C     C_R   0.364814 0.833284 0.410272 -0.114430
C23   C     C_R   0.907199 0.598307 0.441765 0.866852
C24   C     C_R   0.349645 0.148787 0.400751 -0.108881
C25   C     C_R   0.864814 0.333284 0.410272 -0.114430
C26   C     C_R   0.849645 0.648787 0.400751 -0.108881
C27   C     C_R   0.643316 0.001489 0.131055 -0.359352
C28   C     C_R   0.143316 0.501489 0.131055 -0.359352
C29   C     C_R   0.377901 0.003962 0.761580 -0.012315
C30   C     C_R   0.877901 0.503962 0.761580 -0.012315
C31   C     C_R   0.351815 0.023162 0.854877 0.074197
C32   C     C_R   0.851815 0.523162 0.854877 0.074198
C33   C     C_R   0.588721 0.896951 0.554836 0.846596
C34   C     C_R   0.912096 0.396130 0.444334 0.853825
C35   C     C_R   0.590902 0.100546 0.557471 0.860912
C36   C     C_R   0.088721 0.396951 0.554836 0.846596
C37   C     C_R   0.090902 0.600546 0.557471 0.860912
C38   C     C_R   0.399351 0.034938 0.947934 -0.217744
C39   C     C_R   0.899351 0.534938 0.947934 -0.217744
C40   C     C_R   0.471145 0.017244 0.951967 -0.019559
C41   C     C_R   0.971145 0.517244 0.951967 -0.019558
C42   C     C_R   0.495144 0.005856 0.853196 0.227784
C43   C     C_R   0.995144 0.505856 0.853196 0.227784
C44   C     C_R   0.520240 0.011936 0.047999 -0.045128
C45   C     C_R   0.748233 0.211769 0.537412 0.086179
C46   C     C_R   0.020240 0.511936 0.047999 -0.045128
C47   C     C_R   0.593024 0.007196 0.040053 0.170066
C48   C     C_R   0.093024 0.507197 0.040053 0.170066
C49   C     C_R   0.615415 0.005205 0.940829 -0.278675
C50   C     C_R   0.115415 0.505204 0.940829 -0.278675
C51   C     C_R   0.566901 0.002559 0.848706 -0.202853
C52   C     C_R   0.066901 0.502559 0.848706 -0.202853
C53   C     C_R   0.501474 0.005546 0.151397 0.023368
C54   C     C_R   0.001474 0.505546 0.151397 0.023368
C55   C     C_R   0.622039 0.998046 0.230546 0.260142
C56   C     C_R   0.699855 0.736030 0.499985 0.083233
C57   C     C_R   0.122039 0.498046 0.230546 0.260142
C58   C     C_R   0.754208 0.174027 0.723882 -0.203635
C59   C     C_R   0.638309 0.701419 0.646828 -0.190254
C60   C     C_R   0.254208 0.674027 0.723882 -0.203635
C61   C     C_R   0.138309 0.201419 0.646828 -0.190255
C62   C     C_R   0.650565 0.148450 0.595491 -0.063092
C63   C     C_R   0.628097 0.827464 0.576035 -0.067130
C64   C     C_R   0.150565 0.648450 0.595491 -0.063092
C65   C     C_R   0.128097 0.327464 0.576035 -0.067130
C66   C     C_R   0.337581 0.824874 0.301630 -0.206668
C67   C     C_R   0.248233 0.711769 0.537412 0.086179
C68   C     C_R   0.356583 0.194328 0.313168 -0.205397
C69   C     C_R   0.837581 0.324874 0.301630 -0.206668
C70   C     C_R   0.856583 0.694328 0.313168 -0.205397
C71   C     C_R   0.285430 0.772752 0.268318 -0.197938
C72   C     C_R   0.304134 0.244974 0.274939 -0.199103
C73   C     C_R   0.785430 0.272752 0.268318 -0.197938
C74   C     C_R   0.804134 0.744974 0.274939 -0.199103
C75   C     C_R   0.255982 0.731474 0.343144 0.100563
C76   C     C_R   0.247833 0.257029 0.330487 0.086762
C77   C     C_R   0.755982 0.231474 0.343144 0.100563
C78   C     C_R   0.199855 0.236030 0.499985 0.083233
C79   C     C_R   0.747833 0.757028 0.330487 0.086762
C80   C     C_R   0.280796 0.742240 0.454725 0.074820
C81   C     C_R   0.244716 0.216849 0.425902 0.078404
C82   C     C_R   0.780796 0.242240 0.454725 0.074819
C83   C     C_R   0.744716 0.716849 0.425902 0.078404
C84   C     C_R   0.342248 0.785131 0.485462 0.047685
C85   C     C_R   0.288675 0.154074 0.448684 0.053366
C86   C     C_R   0.842248 0.285131 0.485462 0.047685
C87   C     C_R   0.788675 0.654074 0.448684 0.053366
C88   C     C_1   0.430343 0.998818 0.171415 0.217908
C89   C     C_R   0.785105 0.208183 0.643415 0.170099
C90   C     C_1   0.930343 0.498818 0.171415 0.217908
H1    H     H_    0.666432 0.110903 0.759477 0.152048
H2    H     H_    0.842796 0.497293 0.686989 0.131357
H3    H     H_    0.378800 0.061045 0.013536 0.167582
H4    H     H_    0.878800 0.561045 0.013536 0.167582
H5    H     H_    0.586880 0.997831 0.774816 0.207605
H6    H     H_    0.086880 0.497831 0.774816 0.207605
H7    H     H_    0.381869 0.734888 0.747025 0.146747
H8    H     H_    0.200955 0.068183 0.627557 0.138984
H9    H     H_    0.881869 0.234888 0.747025 0.146747
H10   H     H_    0.700955 0.568183 0.627557 0.138984
H11   H     H_    0.782391 0.169718 0.804540 0.134662
H12   H     H_    0.571289 0.786539 0.698461 0.155013
H13   H     H_    0.624604 0.660441 0.702678 0.140778
H14   H     H_    0.282391 0.669718 0.804540 0.134662
H15   H     H_    0.124604 0.160441 0.702678 0.140778
H16   H     H_    0.645056 0.199891 0.444577 0.173674
H17   H     H_    0.693900 0.853356 0.460975 0.184403
H18   H     H_    0.145056 0.699891 0.444577 0.173675
H19   H     H_    0.193900 0.353356 0.460975 0.184403
H20   H     H_    0.356713 0.858288 0.241763 0.183165
H21   H     H_    0.401892 0.189683 0.272549 0.166022
H22   H     H_    0.856713 0.358288 0.241763 0.183165
H23   H     H_    0.166432 0.610903 0.759477 0.152048
H24   H     H_    0.901892 0.689683 0.272549 0.166022
H25   H     H_    0.267050 0.764865 0.183616 0.144603
H26   H     H_    0.307668 0.275784 0.202781 0.143649
H27   H     H_    0.767050 0.264865 0.183616 0.144603
H28   H     H_    0.807668 0.775784 0.202781 0.143649
H29   H     H_    0.431983 0.801217 0.612022 0.171068
H30   H     H_    0.293822 0.043555 0.521683 0.160952
H31   H     H_    0.931983 0.301217 0.612022 0.171068
H32   H     H_    0.793822 0.543555 0.521683 0.160952
H33   H     H_    0.249870 0.015499 0.783294 0.161578
H34   H     H_    0.071289 0.286538 0.698461 0.155013
H35   H     H_    0.263627 0.998100 0.913498 0.189995
H36   H     H_    0.749870 0.515499 0.783294 0.161578
H37   H     H_    0.763627 0.498100 0.913498 0.189995
H38   H     H_    0.731247 0.136527 0.256084 0.182431
H39   H     H_    0.664556 0.198408 0.254902 0.183284
H40   H     H_    0.667377 0.775414 0.211878 0.194016
H41   H     H_    0.710442 0.853280 0.261174 0.183537
H42   H     H_    0.231247 0.636527 0.256084 0.182431
H43   H     H_    0.164556 0.698408 0.254902 0.183283
H44   H     H_    0.167378 0.275414 0.211878 0.194016
H45   H     H_    0.670750 0.002140 0.934381 0.148489
H46   H     H_    0.210442 0.353280 0.261174 0.183536
H47   H     H_    0.677690 0.041697 0.364985 0.225208
H48   H     H_    0.722428 0.979015 0.305349 0.134198
H49   H     H_    0.177690 0.541697 0.364985 0.225208
H50   H     H_    0.222428 0.479015 0.305349 0.134198
H51   H     H_    0.170750 0.502140 0.934381 0.148489
H52   H     H_    0.698647 0.998412 0.124564 0.139165
H53   H     H_    0.198647 0.498413 0.124564 0.139165
H54   H     H_    0.342796 0.997293 0.686989 0.131357
N1    N     N_R   0.552340 0.000000 0.237260 -0.120693
N2    N     N_3   0.690200 0.802350 0.282676 -0.456029
N3    N     N_3   0.206887 0.673581 0.303787 -0.493958
N4    N     N_3   0.190200 0.302350 0.282676 -0.456029
N5    N     N_3   0.672757 0.989892 0.325324 -0.416527
N6    N     N_3   0.172757 0.489892 0.325324 -0.416527
N7    N     N_R   0.052340 0.500000 0.237260 -0.120693
N8    N     N_R   0.448170 0.000000 0.762060 -0.144536
N9    N     N_R   0.948170 0.500000 0.762060 -0.144536
N10   N     N_1   0.373002 0.994193 0.187265 -0.237899
N11   N     N_1   0.873002 0.494193 0.187265 -0.237899
N12   N     N_3   0.278215 0.033925 0.855947 -0.453119
N13   N     N_3   0.778215 0.533925 0.855947 -0.453119
N14   N     N_3   0.706887 0.173580 0.303787 -0.493958
O1    O     O_R   0.448200 0.076800 0.373930 -0.610337
O2    O     O_R   0.585240 0.076800 0.457600 -0.615662
O3    O     O_R   0.085240 0.423200 0.457600 -0.581156
O4    O     O_R   0.085240 0.576800 0.457600 -0.615662
O5    O     O_R   0.551780 0.923190 0.626070 -0.646510
O6    O     O_R   0.551780 0.076810 0.626070 -0.623417
O7    O     O_R   0.051780 0.423190 0.626070 -0.646510
O8    O     O_R   0.051780 0.576810 0.626070 -0.623417
O9    O     O_R   0.448200 0.923200 0.373930 -0.601569
O10   O     O_R   0.948200 0.576800 0.373930 -0.610337
O11   O     O_R   0.948200 0.423200 0.373930 -0.601569
O12   O     O_R   0.414750 0.076790 0.542400 -0.608257
O13   O     O_R   0.414750 0.923210 0.542400 -0.628809
O14   O     O_R   0.914750 0.576790 0.542400 -0.608257
O15   O     O_R   0.914750 0.423210 0.542400 -0.628809
O16   O     O_R   0.585240 0.923200 0.457600 -0.581156
Zn1   Zn    Zn3+2 0.522330 0.000000 0.387520 0.961086
Zn2   Zn    Zn3+2 0.022330 0.500000 0.387520 0.961086
Zn3   Zn    Zn3+2 0.477660 0.000000 0.612480 0.922915
Zn4   Zn    Zn3+2 0.977660 0.500000 0.612480 0.922915

loop_
_geom_bond_atom_site_label_1
_geom_bond_atom_site_label_2
_ccdc_geom_bond_type
C17   C78   A    
C83   C87   A    
C13   C87   A    
C10   C85   A    
C8    C13   A    
H40   N2    S    
C45   C82   A    
C80   C84   A    
C12   O9    A    
C31   N12   S    
C20   C60   A    
H38   N14   S    
C47   C49   A    
C28   C57   A    
C70   H24   S    
C7    C11   A    
C7    H9    S    
C18   H1    S    
C6    H8    S    
C38   C40   A    
C35   C62   S    
C54   C90   S    
C58   H11   S    
C20   H23   S    
C19   H12   S    
C27   C55   A    
C43   C52   A    
C55   N1    A    
O4    Zn2   S    
C11   C86   A    
O14   Zn4   S    
C69   H22   S    
C14   C62   A    
C12   C22   S    
C1    O12   A    
C27   H52   S    
H41   N2    S    
C4    C78   A    
C23   C26   S    
C15   H17   S    
N8    Zn3   S    
C35   O2    A    
C22   C66   A    
C36   O7    A    
O16   Zn1   S    
O15   Zn4   S    
C44   C53   A    
C18   C58   A    
C30   N9    A    
C23   O14   A    
N1    Zn1   S    
C19   C63   A    
C26   C87   A    
C49   C51   A    
C70   C74   A    
C50   C52   A    
C41   C46   A    
C69   C73   A    
H43   N3    S    
C79   N2    S    
C45   C89   A    
C24   C85   A    
H37   N13   S    
C21   C61   A    
C50   H51   S    
C68   C72   A    
C77   N14   S    
C3    C60   A    
C40   C42   A    
C49   H45   S    
O1    Zn1   S    
O7    Zn4   S    
C41   C43   A    
H47   N5    S    
C11   H31   S    
H39   N14   S    
C55   N5    S    
C12   O13   A    
H33   N12   S    
H48   N5    S    
C74   H28   S    
C46   C48   A    
C61   H15   S    
C71   C75   A    
C73   H27   S    
O12   Zn3   S    
C1    O1    A    
C39   C41   A    
C28   H53   S    
O3    Zn2   S    
C24   C68   A    
C2    C59   A    
C18   C62   A    
C75   N3    S    
C82   C86   A    
C29   H54   S    
C4    C61   A    
C68   H21   S    
C88   N10   T    
C20   C64   A    
C39   H4    S    
C5    C9    A    
O5    Zn3   S    
C66   C71   A    
C40   C44   A    
C33   C63   S    
C57   N6    S    
C46   C54   A    
C53   N1    A    
C71   H25   S    
C72   C76   A    
C16   C67   A    
C66   H20   S    
C33   O16   A    
H46   N4    S    
C34   O11   A    
O8    Zn4   S    
C30   H2    S    
H35   N12   S    
C5    H7    S    
C74   C79   A    
C36   O3    A    
C9    H29   S    
O2    Zn1   S    
C4    C6    A    
C25   C69   A    
H50   N6    S    
C37   C64   S    
C42   N8    A    
C56   C83   A    
O9    Zn1   S    
C32   N13   S    
C75   C80   A    
H36   N13   S    
C27   C47   A    
O10   Zn2   S    
C72   H26   S    
N9    Zn4   S    
C28   C48   A    
C73   C77   A    
N7    Zn2   S    
C21   C65   A    
C36   C65   S    
H42   N3    S    
C2    C8    A    
C67   C80   A    
C3    C5    A    
C17   H19   S    
C76   C81   A    
C6    C10   A    
C44   C47   A    
C54   N7    A    
C42   C51   A    
C22   C84   A    
H44   N4    S    
C25   C34   S    
H49   N6    S    
C17   C65   A    
C35   O6    A    
C31   C38   A    
C19   C59   A    
C15   C56   A    
C21   H34   S    
C8    H10   S    
C59   H13   S    
C29   C31   A    
C34   O15   A    
C2    C56   A    
C29   N8    A    
C30   C32   A    
C13   H32   S    
C78   C81   A    
C37   O8    A    
C3    C67   A    
C77   C82   A    
C26   C70   A    
C57   N7    A    
C38   H3    S    
C48   C50   A    
C25   C86   A    
C33   O5    A    
O11   Zn2   S    
C52   H6    S    
C53   C88   S    
C58   C89   A    
C10   H30   S    
C16   H18   S    
C9    C84   A    
C23   O10   A    
C79   C83   A    
C14   H16   S    
C76   N4    S    
C1    C24   S    
C14   C45   A    
C32   C39   A    
C15   C63   A    
O13   Zn3   S    
C16   C64   A    
C90   N11   T    
C60   H14   S    
C43   N9    A    
C81   C85   A    
O6    Zn3   S    
C51   H5    S    
C37   O4    A    
C7    C89   A    
