data_mof_unit_pretest_709.cif
_audit_creation_date              2012-10-26T18:34:23-0400
_audit_creation_method            fapswitch 2.2
_symmetry_space_group_name_H-M    P1
_symmetry_Int_Tables_number       1
_space_group_crystal_system       triclinic
_cell_length_a                    10.803239
_cell_length_b                    9.653222
_cell_length_c                    9.076216
_cell_angle_alpha                 89.969372
_cell_angle_beta                  92.552317
_cell_angle_gamma                 89.807039
_cell_volume                      945.578288408

loop_
_atom_site_label
_atom_site_type_symbol
_atom_type_description
_atom_site_fract_x
_atom_site_fract_y
_atom_site_fract_z
_atom_type_partial_charge
C1    C     C_R   0.262694 0.500172 0.499796 0.630078
C2    C     C_R   0.061048 0.583324 0.397931 0.171795
C3    C     C_R   0.871469 0.499308 0.499381 0.044950
C4    C     C_R   0.128531 0.500692 0.500619 0.044949
C5    C     C_R   0.439886 0.073640 0.388804 0.375761
C6    C     C_R   0.560114 0.926359 0.611196 0.375761
C7    C     C_R   0.560027 0.072931 0.611242 0.374314
C8    C     C_R   0.439973 0.927069 0.388758 0.374314
C9    C     C_R   0.737306 0.499828 0.500204 0.630078
C10   C     C_R   0.499679 0.500026 0.221000 0.568717
C11   C     C_R   0.500321 0.499974 0.779000 0.568717
C12   C     C_1   0.499883 0.500035 0.065623 0.031864
C13   C     C_1   0.500117 0.499965 0.934377 0.031863
C14   C     C_R   0.069184 0.414174 0.599728 0.177381
C15   C     C_R   0.930816 0.585826 0.400272 0.177380
C16   C     C_R   0.938952 0.416676 0.602068 0.171795
Cu1   Cu    Cu3+1 0.500000 0.640660 0.500000 1.047808
Cu2   Cu    Cu3+1 0.500000 0.359340 0.500000 1.047808
H1    H     H_    0.092783 0.245160 0.714012 0.352059
H2    H     H_    0.907217 0.754842 0.285992 0.352058
H3    H     H_    0.929294 0.336284 0.797882 0.352725
H4    H     H_    0.070705 0.663718 0.202118 0.352726
H5    H     H_    0.337031 0.221923 0.312657 0.358457
H6    H     H_    0.662969 0.778077 0.687343 0.358457
H7    H     H_    0.660975 0.221284 0.687649 0.388001
H8    H     H_    0.339025 0.778716 0.312351 0.388001
N1    N     N_R   0.500000 0.852070 0.500000 -0.323379
N2    N     N_R   0.500000 0.147930 0.500000 -0.323380
O1    O     O_R   0.319640 0.618740 0.499990 -0.501646
O2    O     O_3   0.859304 0.670462 0.307443 -0.669495
O3    O     O_3   0.875367 0.346089 0.707358 -0.699916
O4    O     O_3   0.124633 0.653910 0.292641 -0.699915
O5    O     O_3   0.374972 0.137589 0.274012 -0.609072
O6    O     O_3   0.625028 0.862411 0.725988 -0.609071
O7    O     O_3   0.624923 0.136135 0.726012 -0.598914
O8    O     O_3   0.375077 0.863865 0.273988 -0.598914
O9    O     O_R   0.680360 0.381260 0.500010 -0.501646
O10   O     O_R   0.680360 0.618740 0.500010 -0.498415
O11   O     O_R   0.319640 0.381260 0.499990 -0.498414
O12   O     O_R   0.500000 0.618760 0.288390 -0.476546
O13   O     O_R   0.500000 0.381240 0.711610 -0.476546
O14   O     O_R   0.500000 0.618760 0.711610 -0.496525
O15   O     O_R   0.500000 0.381240 0.288390 -0.496525
O16   O     O_3   0.140696 0.329539 0.692558 -0.669495

loop_
_geom_bond_atom_site_label_1
_geom_bond_atom_site_label_2
_ccdc_geom_bond_type
C5    C8    A    
C2    C4    A    
Cu2   O11   S    
C6    C7    A    
C3    C9    S    
C5    N2    A    
Cu1   O1    S    
C6    N1    A    
C1    C4    S    
H3    O3    S    
C9    O9    A    
Cu1   Cu2   S    
Cu2   N2    S    
H2    O2    S    
Cu2   O15   S    
H1    O16   S    
C16   O3    S    
C2    C15   A    
C11   C13   S    
C1    O1    A    
H4    O4    S    
H7    O7    S    
C10   C12   S    
C14   O16   S    
C9    O10   A    
Cu2   O9    S    
C11   O13   A    
Cu1   O10   S    
C4    C14   A    
C14   C16   A    
C1    O11   A    
Cu1   N1    S    
C3    C15   A    
C12   C13   T    
C15   O2    S    
C2    O4    S    
C8    O8    S    
Cu2   O13   S    
H8    O8    S    
C8    N1    A    
Cu1   O14   S    
C10   O12   A    
C11   O14   A    
C10   O15   A    
C7    O7    S    
C3    C16   A    
H6    O6    S    
C7    N2    A    
C6    O6    S    
H5    O5    S    
Cu1   O12   S    
C5    O5    S    
