data_mof_unit_pretest_1652.cif
_audit_creation_date              2012-12-10T19:06:50-0500
_audit_creation_method            fapswitch 2.2
_symmetry_space_group_name_H-M    P1
_symmetry_Int_Tables_number       1
_space_group_crystal_system       triclinic
_cell_length_a                    13.051031
_cell_length_b                    13.625649
_cell_length_c                    16.897913
_cell_angle_alpha                 89.321737
_cell_angle_beta                  93.383227
_cell_angle_gamma                 94.187645
_cell_volume                      2991.60389827

loop_
_atom_site_label
_atom_site_type_symbol
_atom_type_description
_atom_site_fract_x
_atom_site_fract_y
_atom_site_fract_z
_atom_type_partial_charge
C1    C     C_R   0.481372 0.314902 0.500820 0.891376
C2    C     C_2   0.964019 0.473038 0.477571 -0.241657
C3    C     C_1   0.853025 0.480405 0.483740 0.137777
C4    C     C_1   0.146974 0.519583 0.516262 0.137800
C5    C     C_R   0.483999 0.499970 0.347931 0.851004
C6    C     C_R   0.515784 0.498447 0.652061 0.850513
C7    C     C_R   0.467851 0.485671 0.263990 -0.011640
C8    C     C_R   0.527906 0.483190 0.736130 -0.010162
C9    C     C_R   0.503524 0.402236 0.230679 -0.198510
C10   C     C_R   0.472648 0.403438 0.770036 -0.197843
C11   C     C_R   0.488524 0.387206 0.149887 -0.132982
C12   C     C_R   0.518627 0.685101 0.499176 0.893981
C13   C     C_R   0.483446 0.387607 0.851015 -0.132532
C14   C     C_R   0.441779 0.457883 0.102022 0.165087
C15   C     C_R   0.546181 0.454073 0.898401 0.164873
C16   C     C_R   0.401074 0.538660 0.136182 -0.173300
C17   C     C_R   0.605724 0.530857 0.863664 -0.172776
C18   C     C_R   0.413087 0.551893 0.217604 -0.201881
C19   C     C_R   0.597431 0.544690 0.782098 -0.202841
C20   C     C_2   0.447194 0.453826 0.016035 0.035483
C21   C     C_2   0.539785 0.450400 0.984414 0.035777
C22   C     C_1   0.533330 0.788264 0.498479 -0.185311
C23   C     C_1   0.466664 0.211748 0.501491 -0.186145
C24   C     C_2   0.544258 0.979431 0.497927 -0.162532
C25   C     C_2   0.455723 0.020586 0.501991 -0.162613
C26   C     C_1   0.457855 0.124336 0.501892 0.006921
C27   C     C_1   0.542132 0.875679 0.498051 0.007417
C28   C     C_2   0.035979 0.526941 0.522433 -0.242073
H1    H     H_    0.543025 0.349195 0.267180 0.139737
H2    H     H_    0.617168 0.022882 0.494570 0.159884
H3    H     H_    0.988193 0.421775 0.434866 0.164274
H4    H     H_    0.011804 0.578204 0.565138 0.163833
H5    H     H_    0.674521 0.392863 0.017430 0.180125
H6    H     H_    0.677515 0.516763 0.024578 0.182604
H7    H     H_    0.300341 0.406788 0.983403 0.180079
H8    H     H_    0.325959 0.529869 0.975461 0.182478
H9    H     H_    0.421229 0.353909 0.733851 0.139418
H10   H     H_    0.641701 0.605319 0.755267 0.137097
H11   H     H_    0.383684 0.615485 0.243954 0.138843
H12   H     H_    0.364947 0.593945 0.099970 0.127743
H13   H     H_    0.654373 0.582881 0.899485 0.127642
H14   H     H_    0.439001 0.326709 0.877328 0.137815
H15   H     H_    0.518097 0.323381 0.124027 0.137583
H16   H     H_    0.382813 0.977137 0.505351 0.159913
N1    N     N_1   0.235630 0.515160 0.512550 -0.093124
N2    N     N_1   0.764370 0.484840 0.487450 -0.093098
N3    N     N_3   0.633137 0.451296 0.034255 -0.463675
N4    N     N_3   0.354851 0.461734 0.966187 -0.463880
O1    O     O_R   0.402910 0.365220 0.504590 -0.607093
O2    O     O_R   0.597090 0.634780 0.495410 -0.606270
O3    O     O_R   0.572660 0.355490 0.496530 -0.604945
O4    O     O_R   0.427340 0.644510 0.503470 -0.604277
O5    O     O_R   0.405090 0.505430 0.388710 -0.610950
O6    O     O_R   0.594910 0.494570 0.611290 -0.610504
O7    O     O_R   0.574840 0.495690 0.380650 -0.607105
O8    O     O_R   0.425160 0.504310 0.619350 -0.606911
Zn1   Zn    Zn3+2 0.386660 0.506500 0.505380 0.974722
Zn2   Zn    Zn3+2 0.613340 0.493500 0.494620 0.974830

loop_
_geom_bond_atom_site_label_1
_geom_bond_atom_site_label_2
_ccdc_geom_bond_type
C12   O2    A    
C18   H11   S    
C5    C7    S    
C24   C25   D    
C11   H15   S    
C19   H10   S    
C12   C22   S    
C1    O3    A    
C3    N2    T    
C24   C27   S    
C9    H1    S    
C4    N1    T    
C7    C18   A    
C16   C18   A    
C2    C3    S    
O3    Zn2   S    
O8    Zn1   S    
C9    C11   A    
N1    Zn1   S    
C20   N4    S    
C1    O1    A    
C6    O6    A    
C10   H9    S    
C6    C8    S    
H7    N4    S    
C25   H16   S    
C5    O5    A    
C13   H14   S    
C12   O4    A    
C16   H12   S    
C1    C23   S    
H8    N4    S    
C24   H2    S    
C22   C27   T    
C13   C15   A    
H5    N3    S    
C11   C14   A    
C14   C16   A    
O7    Zn2   S    
C8    C19   A    
O4    Zn1   S    
O2    Zn2   S    
C14   C20   S    
C15   C21   S    
O1    Zn1   S    
C20   C21   D    
C8    C10   A    
O6    Zn2   S    
C23   C26   T    
C7    C9    A    
O5    Zn1   S    
C2    C28   D    
H6    N3    S    
C17   H13   S    
C17   C19   A    
C25   C26   S    
C15   C17   A    
C4    C28   S    
C5    O7    A    
C28   H4    S    
N2    Zn2   S    
C6    O8    A    
C2    H3    S    
C21   N3    S    
C10   C13   A    
