data_mof_unit_pretest_1237.cif
_audit_creation_date              2012-12-11T15:06:42-0500
_audit_creation_method            fapswitch 2.2
_symmetry_space_group_name_H-M    P1
_symmetry_Int_Tables_number       1
_space_group_crystal_system       triclinic
_cell_length_a                    7.237567
_cell_length_b                    14.726952
_cell_length_c                    22.585973
_cell_angle_alpha                 90.0
_cell_angle_beta                  89.999968
_cell_angle_gamma                 88.681218
_cell_volume                      2406.74025091

loop_
_atom_site_label
_atom_site_type_symbol
_atom_type_description
_atom_site_fract_x
_atom_site_fract_y
_atom_site_fract_z
_atom_type_partial_charge
O1    O     O_R   0.390810 0.844810 0.447340 -0.536647
O2    O     O_R   0.109190 0.155190 0.947340 -0.536646
O3    O     O_R   0.890810 0.655190 0.552660 -0.534037
O4    O     O_R   0.609190 0.344810 0.052660 -0.534037
O5    O     O_R   0.720550 0.655820 0.440420 -0.545234
O6    O     O_R   0.779450 0.344180 0.940420 -0.545235
O7    O     O_R   0.220550 0.844180 0.559580 -0.543734
O8    O     O_R   0.279450 0.155820 0.059580 -0.543733
C1    C     C_R   0.553664 0.626187 0.426285 0.733844
C2    C     C_R   0.946336 0.373813 0.926285 0.733844
C3    C     C_R   0.050171 0.873706 0.573677 0.735911
C4    C     C_R   0.449829 0.126294 0.073677 0.735915
O9    O     O_R   0.720530 0.844130 0.440420 -0.529192
O10   O     O_R   0.779470 0.155870 0.940420 -0.529191
O11   O     O_R   0.220530 0.655870 0.559580 -0.532375
O12   O     O_R   0.279470 0.344130 0.059580 -0.532375
O13   O     O_R   0.890830 0.844810 0.552660 -0.521968
O14   O     O_R   0.609170 0.155190 0.052660 -0.521970
O15   O     O_R   0.390830 0.655190 0.447340 -0.533025
O16   O     O_R   0.109170 0.344810 0.947340 -0.533024
C5    C     C_R   0.550466 0.873529 0.426248 0.680772
C6    C     C_R   0.949534 0.126471 0.926248 0.680773
C7    C     C_R   0.053951 0.626538 0.573928 0.659758
C8    C     C_R   0.446049 0.373462 0.073928 0.659760
O17   O     O_3   0.557310 0.749980 0.536820 -0.373321
O18   O     O_3   0.942690 0.250020 0.036820 -0.373322
O19   O     O_3   0.057310 0.750020 0.463180 -0.377717
O20   O     O_3   0.442690 0.249980 0.963180 -0.377717
V1    V     V_3+5 0.832160 0.749980 0.493170 1.455485
V2    V     V_3+5 0.667840 0.250020 0.993170 1.455485
V3    V     V_3+5 0.332160 0.750020 0.506830 1.446807
V4    V     V_3+5 0.167840 0.249980 0.006830 1.446810
C9    C     C_R   0.889871 0.607680 0.859109 -0.260667
C10   C     C_R   0.610138 0.392321 0.359108 -0.260668
C11   C     C_R   0.560774 0.893848 0.136062 -0.259346
C12   C     C_R   0.939222 0.106151 0.636061 -0.259342
H1    H     H_    0.855364 0.727988 0.772673 0.127898
H2    H     H_    0.644645 0.272013 0.272672 0.127898
H3    H     H_    0.624541 0.770765 0.219327 0.127434
H4    H     H_    0.875451 0.229234 0.719327 0.127434
H5    H     H_    0.857615 0.676391 0.873685 0.123660
H6    H     H_    0.642399 0.323610 0.373684 0.123662
H7    H     H_    0.608652 0.828172 0.119738 0.128829
H8    H     H_    0.891344 0.171827 0.619738 0.128834
C13   C     C_R   0.948372 0.449177 0.883017 -0.118720
C14   C     C_R   0.551629 0.550823 0.383016 -0.118722
C15   C     C_R   0.467847 0.050066 0.116008 -0.123722
C16   C     C_R   0.032153 0.949934 0.616008 -0.123726
C17   C     C_R   0.126442 0.466943 0.598338 -0.154673
C18   C     C_R   0.373555 0.533057 0.098338 -0.154674
C19   C     C_R   0.500301 0.036373 0.406349 -0.146064
C20   C     C_R   0.999705 0.963627 0.906349 -0.146061
C21   C     C_R   0.144115 0.394436 0.637467 -0.132099
C22   C     C_R   0.355879 0.605563 0.137467 -0.132102
C23   C     C_R   0.462787 0.109236 0.368793 -0.148174
C24   C     C_R   0.037221 0.890764 0.868793 -0.148174
C25   C     C_R   0.094324 0.404641 0.696682 -0.169130
C26   C     C_R   0.405670 0.595358 0.196682 -0.169129
C27   C     C_R   0.455249 0.096626 0.307708 -0.165147
C28   C     C_R   0.044757 0.903375 0.807708 -0.165148
C29   C     C_R   0.024366 0.488596 0.718552 0.093835
C30   C     C_R   0.475631 0.511404 0.218552 0.093835
C31   C     C_R   0.492966 0.010532 0.282106 0.096422
C32   C     C_R   0.007035 0.989468 0.782105 0.096422
C33   C     C_R   0.004518 0.562825 0.677764 0.070949
C34   C     C_R   0.495482 0.437175 0.177764 0.070948
C35   C     C_R   0.535135 0.936092 0.321072 0.064643
C36   C     C_R   0.964864 0.063907 0.821072 0.064643
C37   C     C_R   0.979690 0.502157 0.779875 0.082914
C38   C     C_R   0.520309 0.497843 0.279874 0.082914
C39   C     C_R   0.493417 0.996198 0.219224 0.083088
C40   C     C_R   0.006583 0.003802 0.719224 0.083088
C41   C     C_R   0.923671 0.590334 0.799018 0.088726
C42   C     C_R   0.576333 0.409666 0.299018 0.088725
C43   C     C_R   0.544499 0.908865 0.197165 0.089772
C44   C     C_R   0.955498 0.091134 0.697165 0.089769
C45   C     C_R   0.902944 0.661305 0.758272 -0.189828
C46   C     C_R   0.597061 0.338696 0.258271 -0.189828
C47   C     C_R   0.584981 0.837341 0.236135 -0.186344
C48   C     C_R   0.915014 0.162659 0.736135 -0.186345
C49   C     C_R   0.941613 0.647867 0.698645 -0.198615
C50   C     C_R   0.558391 0.352133 0.198645 -0.198616
C51   C     C_R   0.577960 0.850265 0.297016 -0.201971
C52   C     C_R   0.922036 0.149734 0.797016 -0.201971
C53   C     C_R   0.989332 0.431829 0.823094 -0.300203
C54   C     C_R   0.510664 0.568171 0.323094 -0.300205
C55   C     C_R   0.450780 0.065755 0.177248 -0.297600
C56   C     C_R   0.049222 0.934245 0.677248 -0.297598
C57   C     C_R   0.898523 0.537544 0.901128 0.404661
C58   C     C_R   0.601485 0.462457 0.401128 0.404664
C59   C     C_R   0.524612 0.963871 0.095435 0.405877
C60   C     C_R   0.975384 0.036129 0.595436 0.405875
C61   C     C_R   0.054523 0.550988 0.617255 -0.078272
C62   C     C_R   0.445476 0.449012 0.117255 -0.078273
C63   C     C_R   0.534177 0.949388 0.383471 -0.076190
C64   C     C_R   0.965824 0.050612 0.883471 -0.076189
H9    H     H_    0.024672 0.362614 0.811551 0.116090
H10   H     H_    0.475318 0.637386 0.311551 0.116091
H11   H     H_    0.410355 0.133606 0.190574 0.117080
H12   H     H_    0.089649 0.866394 0.690573 0.117081
H13   H     H_    0.170543 0.457559 0.552849 0.119934
H14   H     H_    0.329454 0.542440 0.052849 0.119938
H15   H     H_    0.500583 0.047657 0.453749 0.117157
H16   H     H_    0.999423 0.952344 0.953749 0.117156
H17   H     H_    0.117197 0.346149 0.724533 0.115185
H18   H     H_    0.382795 0.653850 0.224534 0.115185
H19   H     H_    0.420828 0.155841 0.281730 0.113109
H20   H     H_    0.079181 0.844159 0.781730 0.113109
H21   H     H_    0.199603 0.329815 0.621912 0.119641
H22   H     H_    0.300388 0.670184 0.121912 0.119640
H23   H     H_    0.436388 0.176114 0.387270 0.120680
H24   H     H_    0.063623 0.823887 0.887270 0.120681
H25   H     H_    0.924449 0.705356 0.669126 0.112902
H26   H     H_    0.575556 0.294645 0.169125 0.112903
H27   H     H_    0.611291 0.792748 0.325200 0.105354
H28   H     H_    0.888703 0.207251 0.825200 0.105354
O21   O     O_3   0.880890 0.556741 0.960925 -0.561750
C65   C     C_3   0.699011 0.587458 0.974268 0.096636
H29   H     H_    0.614686 0.528112 0.986277 0.131213
H30   H     H_    0.627564 0.624245 0.937366 0.103454
C66   C     C_3   0.705905 0.651938 0.026794 -0.707711
H31   H     H_    0.794961 0.710173 0.016178 0.221516
H32   H     H_    0.564829 0.678472 0.036952 0.170221
H33   H     H_    0.762264 0.615842 0.066271 0.233785
O22   O     O_3   0.619128 0.443260 0.460925 -0.561749
C67   C     C_3   0.801010 0.412545 0.474264 0.096642
H34   H     H_    0.885326 0.471891 0.486280 0.131216
H35   H     H_    0.872464 0.375769 0.437359 0.103451
C68   C     C_3   0.794123 0.348053 0.526785 -0.707720
H36   H     H_    0.705078 0.289817 0.516162 0.221516
H37   H     H_    0.935203 0.321522 0.536941 0.170223
H38   H     H_    0.737756 0.384138 0.566264 0.233786
O23   O     O_3   0.567618 0.951612 0.036231 -0.556453
C69   C     C_3   0.432695 0.897582 0.009413 0.075367
H39   H     H_    0.296499 0.934266 0.009078 0.116396
H40   H     H_    0.418374 0.831387 0.032563 0.108483
C70   C     C_3   0.490240 0.877911 0.945817 -0.676921
H41   H     H_    0.629016 0.844076 0.944969 0.218701
H42   H     H_    0.389741 0.832217 0.924762 0.171549
H43   H     H_    0.494998 0.942223 0.920212 0.231104
O24   O     O_3   0.932375 0.048388 0.536232 -0.556454
C71   C     C_3   0.067309 0.102409 0.509412 0.075366
H44   H     H_    0.203495 0.065715 0.509074 0.116398
H45   H     H_    0.081653 0.168602 0.532562 0.108483
C72   C     C_3   0.009758 0.122085 0.445817 -0.676917
H46   H     H_    0.870991 0.155929 0.444972 0.218698
H47   H     H_    0.110267 0.167773 0.424761 0.171552
H48   H     H_    0.004978 0.057774 0.420211 0.231103

loop_
_geom_bond_atom_site_label_1
_geom_bond_atom_site_label_2
_ccdc_geom_bond_type
O17   V3    S    
C25   H17   S    
C26   C30   A    
C67   H34   S    
C23   C27   A    
O19   V1    S    
O13   V1    S    
O3    C7    A    
C10   H6    S    
C48   C52   A    
O15   V3    S    
C69   C70   S    
C14   C54   A    
C72   H46   S    
C11   C59   A    
O1    C5    A    
C70   H42   S    
C11   C43   A    
C36   C64   A    
C32   C36   A    
O9    V1    S    
C9    C57   A    
C17   H13   S    
O4    C8    A    
C19   H15   S    
O1    V3    S    
C22   H22   S    
O2    V4    S    
O3    V1    S    
C38   C42   A    
C66   H33   S    
C12   C44   A    
C40   C56   A    
C65   H29   S    
C1    O15   A    
C20   H16   S    
C2    O16   A    
C19   C63   A    
O2    C6    A    
C16   C56   A    
C37   C41   A    
O14   V2    S    
C11   H7    S    
O5    V1    S    
C28   H20   S    
C40   C44   A    
C34   C62   A    
C68   H38   S    
C12   C60   A    
O11   C7    A    
C1    C14   S    
O12   C8    A    
C35   C63   A    
C71   C72   S    
C3    C16   S    
C15   C59   A    
O10   V2    S    
C4    C15   S    
C72   H47   S    
O16   V4    S    
C55   H11   S    
C70   H43   S    
C31   C35   A    
C39   C43   A    
O7    V3    S    
C30   C34   A    
O8    V4    S    
C51   H27   S    
C50   H26   S    
C21   C25   A    
O18   V4    S    
C18   C62   A    
C69   H40   S    
H2    C46   S    
C67   C68   S    
H1    C45   S    
C27   H19   S    
C7    C61   S    
C26   H18   S    
C65   C66   S    
C36   C52   A    
O7    C3    A    
C10   C58   A    
O5    C1    A    
C8    C62   S    
C34   C50   A    
C46   C50   A    
C33   C49   A    
C59   O23   S    
C45   C49   A    
O8    C4    A    
C2    C13   S    
H4    C48   S    
O9    C5    A    
C18   C22   A    
C35   C51   A    
C25   C29   A    
C60   O24   S    
C66   H31   S    
C56   H12   S    
C10   C42   A    
C39   C55   A    
C9    C41   A    
O6    V2    S    
C57   O21   S    
C18   H14   S    
C16   C60   A    
O23   C69   S    
C71   H45   S    
C12   H8    S    
C49   H25   S    
C38   C54   A    
C72   H48   S    
C37   C53   A    
C68   H36   S    
C22   C26   A    
C29   C37   A    
C3    O13   A    
C67   H35   S    
C13   C57   A    
C23   H23   S    
C6    C64   S    
C44   C48   A    
C31   C39   A    
O6    C2    A    
C30   C38   A    
O11   V3    S    
C69   H39   S    
C14   C58   A    
O12   V4    S    
C5    C63   S    
C70   H41   S    
C27   C31   A    
C13   C53   A    
C28   C32   A    
C9    H5    S    
O10   C6    A    
O20   V2    S    
O21   C65   S    
C47   C51   A    
O22   C67   S    
C17   C21   A    
C33   C61   A    
C58   O22   S    
C20   C64   A    
C19   C23   A    
C32   C40   A    
C54   H10   S    
C65   H30   S    
C66   H32   S    
C53   H9    S    
C29   C33   A    
C24   C28   A    
C52   H28   S    
C42   C46   A    
C4    O14   A    
C41   C45   A    
C71   H44   S    
C21   H21   S    
C17   C61   A    
O24   C71   S    
C43   C47   A    
C24   H24   S    
O4    V2    S    
C20   C24   A    
H3    C47   S    
C68   H37   S    
C15   C55   A    
