data_mof_unit_pretest_365.cif
_audit_creation_date              2012-12-10T17:23:44-0500
_audit_creation_method            fapswitch 2.2
_symmetry_space_group_name_H-M    P1
_symmetry_Int_Tables_number       1
_space_group_crystal_system       triclinic
_cell_length_a                    9.581872
_cell_length_b                    10.854087
_cell_length_c                    17.313651
_cell_angle_alpha                 92.822354
_cell_angle_beta                  87.333213
_cell_angle_gamma                 90.788668
_cell_volume                      1796.41178632

loop_
_atom_site_label
_atom_site_type_symbol
_atom_type_description
_atom_site_fract_x
_atom_site_fract_y
_atom_site_fract_z
_atom_type_partial_charge
C1    C     C_R   0.500680 0.736842 0.494185 0.812469
C2    C     C_R   0.377399 0.571205 0.777475 -0.214033
C3    C     C_R   0.411061 0.535455 0.145867 -0.244458
C4    C     C_R   0.408252 0.545471 0.226783 0.483787
C5    C     C_R   0.629431 0.436145 0.223718 -0.291292
C6    C     C_R   0.627623 0.421972 0.143536 -0.173469
C7    C     C_R   0.519346 0.472598 0.104587 0.124668
C8    C     C_2   0.499706 0.558242 0.978466 -0.243203
C9    C     C_2   0.521152 0.460491 0.020338 -0.226107
C10   C     C_R   0.519997 0.497045 0.265731 -0.112008
C11   C     C_R   0.258638 0.873871 0.439329 -0.183027
C12   C     C_R   0.483669 0.500643 0.649722 0.806770
C13   C     C_R   0.127360 0.929450 0.443542 0.132244
C14   C     C_R   0.112149 0.044302 0.482566 -0.171447
C15   C     C_R   0.229116 0.108539 0.508640 -0.201978
C16   C     C_R   0.364883 0.058779 0.496672 0.095433
C17   C     C_R   0.374913 0.932997 0.473637 0.061743
C18   C     C_R   0.499654 0.870532 0.487781 -0.111029
C19   C     C_R   0.619413 0.937894 0.507288 -0.210587
C20   C     C_R   0.616994 0.065223 0.512792 -0.225206
C21   C     C_R   0.491087 0.127585 0.507381 -0.098231
C22   C     C_R   0.862918 0.334357 0.397393 -0.126038
C23   C     C_R   0.497634 0.262352 0.504055 0.767488
C24   C     C_R   0.938691 0.253945 0.347254 -0.237781
C25   C     C_R   0.082471 0.255093 0.346976 -0.220157
C26   C     C_R   0.151184 0.336212 0.397132 -0.110203
C27   C     C_R   0.078085 0.419014 0.449659 0.170906
C28   C     C_R   0.928604 0.418720 0.449687 0.105184
C29   C     C_R   0.921603 0.578323 0.548643 0.571561
C30   C     C_R   0.071935 0.578471 0.547194 -0.199948
C31   C     C_R   0.516433 0.500677 0.350247 0.801021
C32   C     C_R   0.482511 0.508013 0.734021 -0.051929
C33   C     C_R   0.598186 0.464147 0.770434 -0.206470
C34   C     C_R   0.614058 0.487235 0.849614 0.130522
C35   C     C_R   0.503501 0.546233 0.893810 0.153657
C36   C     C_R   0.388147 0.590214 0.857039 -0.197886
Cu1   Cu    Cu3+1 0.359340 0.500010 0.500010 0.934181
Cu2   Cu    Cu3+1 0.640660 0.499990 0.499990 0.968488
H1    H     H_    0.678739 0.414604 0.736225 0.148251
H2    H     H_    0.711858 0.373448 0.111710 0.136333
H3    H     H_    0.715181 0.892073 0.519064 0.180676
H4    H     H_    0.268494 0.784922 0.408698 0.192728
H5    H     H_    0.010183 0.086043 0.491192 0.141728
H6    H     H_    0.209064 0.194262 0.541064 0.179146
H7    H     H_    0.713732 0.114766 0.523350 0.163066
H8    H     H_    0.753349 0.326138 0.392122 0.198131
H9    H     H_    0.885127 0.190461 0.308159 0.147796
H10   H     H_    0.141524 0.192415 0.307786 0.147969
H11   H     H_    0.261582 0.329641 0.392342 0.198750
H12   H     H_    0.129144 0.642893 0.583647 0.158761
H13   H     H_    0.714315 0.396581 0.252992 0.164981
H14   H     H_    0.548968 0.371924 0.992182 0.152390
H15   H     H_    0.305171 0.638013 0.890416 0.135310
H16   H     H_    0.328131 0.575459 0.115236 0.138483
H17   H     H_    0.288875 0.607929 0.749799 0.144040
H18   H     H_    0.470011 0.646332 0.006629 0.156885
N1    N     N_R   0.852190 0.498790 0.499250 -0.237914
N2    N     N_R   0.148060 0.498710 0.499220 -0.219248
O1    O     O_R   0.381190 0.680360 0.500010 -0.590988
O2    O     O_R   0.618760 0.680340 0.500000 -0.533419
O3    O     O_R   0.367440 0.500030 0.613600 -0.587762
O4    O     O_R   0.605010 0.500010 0.613590 -0.541057
O5    O     O_R   0.381240 0.319660 0.500000 -0.615715
O6    O     O_R   0.618810 0.319640 0.499990 -0.606464
O7    O     O_R   0.394990 0.499990 0.386410 -0.562078
O8    O     O_R   0.632560 0.499970 0.386400 -0.614541
C37   C     C_3   0.002718 0.863185 0.410461 -0.397139
C38   C     C_3   0.009526 0.862210 0.321900 -0.360484
C39   C     C_3   0.882237 0.795890 0.288891 -0.835224
H19   H     H_    0.875419 0.699447 0.307584 0.257494
H20   H     H_    0.785051 0.844873 0.308825 0.258046
H21   H     H_    0.891072 0.793965 0.224677 0.237984
H22   H     H_    0.012828 0.958625 0.302898 0.219826
H23   H     H_    0.105765 0.815191 0.298469 0.244492
H24   H     H_    0.998116 0.767164 0.430102 0.201330
H25   H     H_    0.905045 0.909525 0.432093 0.196171
O9    O     O_3   0.840264 0.660554 0.595195 -0.539649
C40   C     C_3   0.906226 0.705982 0.662130 -0.396698
H26   H     H_    0.980848 0.781592 0.647694 0.165176
H27   H     H_    0.958491 0.631737 0.691681 0.147267
H28   H     H_    0.825232 0.745630 0.703629 0.201550
O10   O     O_3   0.302986 0.609903 0.268364 -0.590231
C41   C     C_3   0.170999 0.557543 0.252333 -0.329393
H29   H     H_    0.173159 0.455095 0.243813 0.163302
H30   H     H_    0.128895 0.599081 0.201022 0.162197
H31   H     H_    0.097953 0.579103 0.302591 0.199084
C42   C     C_3   0.749998 0.450049 0.883669 -0.436131
C43   C     C_3   0.878285 0.508604 0.842809 -0.352986
C44   C     C_3   0.012045 0.477774 0.881796 -0.856049
H32   H     H_    0.010661 0.518625 0.941926 0.250399
H33   H     H_    0.024262 0.376249 0.882825 0.258170
H34   H     H_    0.102594 0.516213 0.848552 0.244970
H35   H     H_    0.888703 0.473502 0.781555 0.217388
H36   H     H_    0.866890 0.610512 0.844101 0.220444
H37   H     H_    0.753773 0.478954 0.945737 0.219933
H38   H     H_    0.758169 0.347884 0.878436 0.188882

loop_
_geom_bond_atom_site_label_1
_geom_bond_atom_site_label_2
_ccdc_geom_bond_type
C31   O8    A    
C42   C43   S    
C16   C21   A    
C35   C36   A    
C8    H18   S    
O9    C40   S    
C1    C18   S    
C33   H1    S    
Cu1   Cu2   S    
C15   H6    S    
C18   C19   A    
C3    C7    A    
C2    H17   S    
C1    O1    A    
C5    C6    A    
C3    H16   S    
C40   H27   S    
C38   H23   S    
C15   C16   A    
C11   H4    S    
C2    C32   A    
C34   C35   A    
C39   H20   S    
C36   H15   S    
C10   C31   S    
Cu2   O8    S    
C38   C39   S    
C42   H37   S    
C44   H33   S    
Cu1   N2    S    
C23   O5    A    
C30   H12   S    
C22   C28   A    
C13   C14   A    
C12   C32   S    
C9    H14   S    
Cu1   O5    S    
C33   C34   A    
Cu2   O6    S    
C43   H36   S    
C37   C38   S    
C24   C25   A    
C26   H11   S    
C40   H26   S    
C8    C9    D    
C25   C26   A    
C28   N1    A    
Cu1   O7    S    
C8    C35   S    
C39   H21   S    
C29   C30   A    
Cu2   N1    S    
C12   O4    A    
C41   H29   S    
C42   H38   S    
C17   C18   A    
C26   C27   A    
C4    O10   S    
C43   C44   S    
C44   H34   S    
C25   H10   S    
Cu1   O1    S    
Cu2   O2    S    
C23   O6    A    
C41   H30   S    
C29   N1    A    
C21   C23   S    
C22   C24   A    
C1    O2    A    
C37   H24   S    
C4    C10   A    
C3    C4    A    
C13   C37   S    
C2    C36   A    
C31   O7    A    
C43   H35   S    
C11   C17   A    
C22   H8    S    
C24   H9    S    
C20   H7    S    
C27   N2    A    
Cu1   O3    S    
C6    C7    A    
C32   C33   A    
C19   C20   A    
C38   H22   S    
C5    C10   A    
C12   O3    A    
C11   C13   A    
C40   H28   S    
C16   C17   A    
C30   N2    A    
C6    H2    S    
C34   C42   S    
C39   H19   S    
C7    C9    S    
C41   H31   S    
C29   O9    S    
C20   C21   A    
O10   C41   S    
C27   C28   A    
C14   C15   A    
C5    H13   S    
C37   H25   S    
C44   H32   S    
C19   H3    S    
C14   H5    S    
Cu2   O4    S    
