data_mof_unit_pretest_1576.cif
_audit_creation_date              2012-12-10T17:32:49-0500
_audit_creation_method            fapswitch 2.2
_symmetry_space_group_name_H-M    P1
_symmetry_Int_Tables_number       1
_space_group_crystal_system       triclinic
_cell_length_a                    30.178281
_cell_length_b                    30.178443
_cell_length_c                    23.503708
_cell_angle_alpha                 90.000251
_cell_angle_beta                  89.999375
_cell_angle_gamma                 89.991158
_cell_volume                      21405.614769

loop_
_atom_site_label
_atom_site_type_symbol
_atom_type_description
_atom_site_fract_x
_atom_site_fract_y
_atom_site_fract_z
_atom_type_partial_charge
C1    C     C_R   0.586431 0.999996 0.499997 0.884573
C2    C     C_R   0.999997 0.586430 0.500002 0.884579
C3    C     C_R   0.413569 0.000003 0.499999 0.884573
C4    C     C_R   0.000003 0.413569 0.500002 0.884583
C5    C     C_R   0.086426 0.499997 0.999998 0.884448
C6    C     C_R   0.499997 0.086436 0.000002 0.884719
C7    C     C_R   0.913575 0.500004 0.999998 0.884447
C8    C     C_R   0.500003 0.913564 0.000001 0.884717
C9    C     C_R   0.725295 0.032897 0.594486 -0.225571
C10   C     C_R   0.967289 0.725307 0.594607 -0.225561
C11   C     C_R   0.274702 0.967094 0.594482 -0.225567
C12   C     C_R   0.032723 0.274694 0.594597 -0.225559
C13   C     C_R   0.274693 0.032937 0.405526 -0.225570
C14   C     C_R   0.032651 0.725295 0.405372 -0.225561
C15   C     C_R   0.725309 0.967031 0.405542 -0.225567
C16   C     C_R   0.967334 0.274704 0.405381 -0.225562
C17   C     C_R   0.225288 0.531056 0.095515 -0.225514
C18   C     C_R   0.465460 0.225315 0.093522 -0.225625
C19   C     C_R   0.774711 0.468984 0.095535 -0.225514
C20   C     C_R   0.534524 0.774685 0.093529 -0.225620
C21   C     C_R   0.774700 0.531102 0.904500 -0.225505
C22   C     C_R   0.534513 0.225303 0.906477 -0.225617
C23   C     C_R   0.225301 0.468871 0.904515 -0.225510
C24   C     C_R   0.465512 0.774696 0.906459 -0.225618
C25   C     C_R   0.702293 0.016983 0.547284 0.129537
C26   C     C_R   0.983083 0.702296 0.547339 0.129543
C27   C     C_R   0.297706 0.983007 0.547280 0.129536
C28   C     C_R   0.016921 0.297704 0.547334 0.129540
C29   C     C_R   0.297702 0.017027 0.452729 0.129535
C30   C     C_R   0.016860 0.702291 0.452641 0.129547
C31   C     C_R   0.702300 0.982951 0.452740 0.129532
C32   C     C_R   0.983131 0.297709 0.452646 0.129545
C33   C     C_R   0.202270 0.516049 0.047828 0.129650
C34   C     C_R   0.482158 0.202320 0.046769 0.129419
C35   C     C_R   0.797729 0.483972 0.047839 0.129654
C36   C     C_R   0.517832 0.797680 0.046772 0.129422
C37   C     C_R   0.797724 0.516099 0.952188 0.129647
C38   C     C_R   0.517806 0.202314 0.953225 0.129421
C39   C     C_R   0.202277 0.483887 0.952197 0.129646
C40   C     C_R   0.482205 0.797686 0.953215 0.129423
C41   C     C_R   0.725591 0.999964 0.500014 0.079332
C42   C     C_R   0.999969 0.725586 0.499989 0.079297
C43   C     C_R   0.274409 0.000018 0.500005 0.079330
C44   C     C_R   0.000029 0.274414 0.499989 0.079301
C45   C     C_R   0.225560 0.499965 0.000014 0.079083
C46   C     C_R   0.499980 0.225618 0.999996 0.079555
C47   C     C_R   0.774441 0.500038 0.000015 0.079078
C48   C     C_R   0.500020 0.774382 0.999993 0.079550
C49   C     C_R   0.656274 0.017312 0.546700 -0.263207
C50   C     C_R   0.982776 0.656277 0.546769 -0.263254
C51   C     C_R   0.343725 0.982686 0.546702 -0.263210
C52   C     C_R   0.017230 0.343723 0.546764 -0.263252
C53   C     C_R   0.343721 0.017341 0.453305 -0.263218
C54   C     C_R   0.017184 0.656272 0.453221 -0.263244
C55   C     C_R   0.656280 0.982644 0.453311 -0.263219
C56   C     C_R   0.982807 0.343728 0.453225 -0.263245
C57   C     C_R   0.156251 0.516361 0.047269 -0.263345
C58   C     C_R   0.481833 0.156301 0.046172 -0.263114
C59   C     C_R   0.843748 0.483658 0.047279 -0.263348
C60   C     C_R   0.518156 0.843699 0.046177 -0.263116
C61   C     C_R   0.843744 0.516389 0.952735 -0.263353
C62   C     C_R   0.518139 0.156296 0.953824 -0.263104
C63   C     C_R   0.156257 0.483596 0.952745 -0.263352
C64   C     C_R   0.481873 0.843704 0.953815 -0.263106
C65   C     C_R   0.633781 0.999987 0.500001 -0.044542
C66   C     C_R   0.999987 0.633779 0.499999 -0.044451
C67   C     C_R   0.366219 0.000011 0.500002 -0.044536
C68   C     C_R   0.000013 0.366221 0.499998 -0.044456
C69   C     C_R   0.133765 0.499987 0.000003 -0.043771
C70   C     C_R   0.499989 0.133795 0.999999 -0.045255
C71   C     C_R   0.866235 0.500014 0.000002 -0.043757
C72   C     C_R   0.500011 0.866205 0.999998 -0.045246
C73   C     C_R   0.999998 0.912802 0.500000 0.875979
C74   C     C_R   0.087195 0.000001 0.499999 0.876029
C75   C     C_R   0.000002 0.087197 0.500000 0.875984
C76   C     C_R   0.912805 0.999998 0.500001 0.876029
C77   C     C_R   0.499997 0.412818 0.000000 0.876334
C78   C     C_R   0.587211 0.500001 0.000000 0.875749
C79   C     C_R   0.500001 0.587182 0.000000 0.876335
C80   C     C_R   0.412789 0.499998 0.000000 0.875741
C81   C     C_R   0.500000 0.000000 0.609274 0.893618
C82   C     C_R   1.000000 0.500000 0.609274 0.893610
C83   C     C_R   0.500000 1.000000 0.390726 0.893604
C84   C     C_R   0.000000 0.500000 0.390726 0.893625
C85   C     C_R   0.000000 0.500000 0.109274 0.893398
C86   C     C_R   0.500000 1.000000 0.109274 0.893841
C87   C     C_R   1.000000 0.500000 0.890726 0.893384
C88   C     C_R   0.500000 0.000000 0.890726 0.893852
C89   C     C_1   0.500000 0.000000 0.669524 -0.188803
C90   C     C_1   0.999999 0.500000 0.669525 -0.188894
C91   C     C_1   0.500000 1.000000 0.330475 -0.188799
C92   C     C_1   0.000001 0.500000 0.330475 -0.188898
C93   C     C_1   0.000000 0.500000 0.169524 -0.188926
C94   C     C_1   0.499999 1.000000 0.169525 -0.188771
C95   C     C_1   1.000000 0.500000 0.830475 -0.188922
C96   C     C_1   0.500001 0.000000 0.830475 -0.188773
C97   C     C_1   0.500000 0.000000 0.720345 0.000594
C98   C     C_1   0.999999 0.500000 0.720346 0.000476
C99   C     C_1   0.499999 1.000000 0.279655 0.000592
C100  C     C_1   0.000001 0.500000 0.279654 0.000477
C101  C     C_1   0.000001 0.500000 0.220345 0.000457
C102  C     C_1   0.499999 1.000000 0.220346 0.000612
C103  C     C_1   0.999999 0.500000 0.779655 0.000456
C104  C     C_1   0.500001 0.000000 0.779654 0.000614
C105  C     C_R   0.841173 0.974060 0.458981 0.014220
C106  C     C_R   0.025820 0.841148 0.458887 0.014284
C107  C     C_R   0.158830 0.025923 0.458969 0.014227
C108  C     C_R   0.974174 0.158851 0.458892 0.014282
C109  C     C_R   0.158841 0.974094 0.541029 0.014286
C110  C     C_R   0.974143 0.841162 0.541103 0.014211
C111  C     C_R   0.841157 0.025895 0.541035 0.014289
C112  C     C_R   0.025859 0.158838 0.541099 0.014226
C113  C     C_R   0.341100 0.474638 0.958401 0.014180
C114  C     C_R   0.526404 0.341223 0.959493 0.014353
C115  C     C_R   0.658902 0.525353 0.958392 0.014197
C116  C     C_R   0.473602 0.658778 0.959483 0.014329
C117  C     C_R   0.658917 0.474692 0.041626 0.014233
C118  C     C_R   0.473575 0.341235 0.040514 0.014252
C119  C     C_R   0.341084 0.525320 0.041615 0.014238
C120  C     C_R   0.526419 0.658766 0.040514 0.014278
C121  C     C_R   0.864450 0.999985 0.500004 -0.167142
C122  C     C_R   0.999987 0.864444 0.499998 -0.167451
C123  C     C_R   0.135550 0.000006 0.499999 -0.167149
C124  C     C_R   0.000011 0.135556 0.499998 -0.167423
C125  C     C_R   0.364408 0.499987 0.000004 -0.169377
C126  C     C_R   0.499990 0.364486 0.000001 -0.165246
C127  C     C_R   0.635593 0.500013 0.000003 -0.169407
C128  C     C_R   0.500007 0.635514 1.000000 -0.165269
C129  C     C_R   0.795120 0.019702 0.545704 0.100741
C130  C     C_R   0.980345 0.795124 0.545755 0.100782
C131  C     C_R   0.204878 0.980282 0.545695 0.100740
C132  C     C_R   0.019657 0.204876 0.545751 0.100773
C133  C     C_R   0.204872 0.019746 0.454310 0.100764
C134  C     C_R   0.019598 0.795115 0.454224 0.100756
C135  C     C_R   0.795130 0.980229 0.454324 0.100764
C136  C     C_R   0.980394 0.204884 0.454229 0.100754
C137  C     C_R   0.295082 0.518899 0.046241 0.100884
C138  C     C_R   0.479551 0.295163 0.045199 0.100649
C139  C     C_R   0.704918 0.481119 0.046252 0.100890
C140  C     C_R   0.520441 0.704838 0.045201 0.100640
C141  C     C_R   0.704910 0.518953 0.953779 0.100897
C142  C     C_R   0.520418 0.295155 0.954799 0.100607
C143  C     C_R   0.295091 0.481035 0.953786 0.100902
C144  C     C_R   0.479591 0.704845 0.954790 0.100619
C145  C     C_R   0.772066 0.999963 0.500015 -0.011857
C146  C     C_R   0.999968 0.772061 0.499988 -0.011842
C147  C     C_R   0.227934 0.000017 0.500004 -0.011855
C148  C     C_R   0.000028 0.227939 0.499989 -0.011837
C149  C     C_R   0.272026 0.499964 0.000015 -0.011691
C150  C     C_R   0.499980 0.272102 0.999996 -0.011985
C151  C     C_R   0.727975 0.500038 0.000016 -0.011685
C152  C     C_R   0.500019 0.727898 0.999993 -0.011983
C153  C     C_R   0.771271 0.033972 0.593915 -0.223092
C154  C     C_R   0.966205 0.771285 0.594032 -0.223060
C155  C     C_R   0.228726 0.966015 0.593908 -0.223086
C156  C     C_R   0.033806 0.228716 0.594023 -0.223070
C157  C     C_R   0.228716 0.034010 0.406097 -0.223057
C158  C     C_R   0.033736 0.771272 0.405946 -0.223103
C159  C     C_R   0.771287 0.965955 0.406115 -0.223043
C160  C     C_R   0.966251 0.228727 0.405955 -0.223106
C161  C     C_R   0.271269 0.532206 0.094922 -0.223264
C162  C     C_R   0.464450 0.271288 0.092975 -0.222897
C163  C     C_R   0.728730 0.467834 0.094942 -0.223277
C164  C     C_R   0.535536 0.728712 0.092980 -0.222909
C165  C     C_R   0.728719 0.532255 0.905096 -0.223237
C166  C     C_R   0.535529 0.271276 0.907028 -0.222939
C167  C     C_R   0.271283 0.467721 0.905110 -0.223228
C168  C     C_R   0.464495 0.728723 0.907011 -0.222939
H1    H     H_    0.787860 0.045966 0.631660 0.151580
H2    H     H_    0.954319 0.787886 0.631828 0.151548
H3    H     H_    0.212136 0.954022 0.631653 0.151576
H4    H     H_    0.045699 0.212116 0.631815 0.151555
H5    H     H_    0.212122 0.045990 0.368345 0.151552
H6    H     H_    0.045634 0.787868 0.368156 0.151578
H7    H     H_    0.787881 0.953970 0.368367 0.151545
H8    H     H_    0.954351 0.212131 0.368166 0.151582
H9    H     H_    0.287907 0.543492 0.132994 0.151525
H10   H     H_    0.451858 0.287838 0.130423 0.151618
H11   H     H_    0.712089 0.456563 0.133022 0.151529
H12   H     H_    0.548129 0.712161 0.130427 0.151623
H13   H     H_    0.712076 0.543528 0.867018 0.151501
H14   H     H_    0.548147 0.287821 0.869594 0.151651
H15   H     H_    0.287926 0.456440 0.867036 0.151499
H16   H     H_    0.451891 0.712177 0.869569 0.151648
H17   H     H_    0.707739 0.044887 0.631657 0.148547
H18   H     H_    0.955404 0.707758 0.631836 0.148572
H19   H     H_    0.292257 0.955109 0.631656 0.148547
H20   H     H_    0.044613 0.292243 0.631823 0.148572
H21   H     H_    0.292245 0.044917 0.368349 0.148544
H22   H     H_    0.044540 0.707742 0.368145 0.148577
H23   H     H_    0.707759 0.955045 0.368367 0.148541
H24   H     H_    0.955441 0.292258 0.368157 0.148578
H25   H     H_    0.207743 0.542305 0.133074 0.148620
H26   H     H_    0.452837 0.207754 0.130340 0.148499
H27   H     H_    0.792255 0.457750 0.133101 0.148622
H28   H     H_    0.547141 0.792245 0.130351 0.148500
H29   H     H_    0.792241 0.542337 0.866934 0.148617
H30   H     H_    0.547146 0.207739 0.869663 0.148503
H31   H     H_    0.207761 0.457624 0.866955 0.148616
H32   H     H_    0.452890 0.792260 0.869640 0.148504
H33   H     H_    0.637865 0.030400 0.582635 0.138906
H34   H     H_    0.969794 0.637872 0.582767 0.138816
H35   H     H_    0.362133 0.969605 0.582641 0.138901
H36   H     H_    0.030218 0.362129 0.582758 0.138821
H37   H     H_    0.362126 0.030418 0.417364 0.138900
H38   H     H_    0.030173 0.637863 0.417226 0.138818
H39   H     H_    0.637876 0.969564 0.417371 0.138903
H40   H     H_    0.969813 0.362137 0.417235 0.138824
H41   H     H_    0.137838 0.528726 0.083621 0.138272
H42   H     H_    0.468129 0.137900 0.081730 0.139475
H43   H     H_    0.862161 0.471306 0.083638 0.138262
H44   H     H_    0.531852 0.862100 0.081740 0.139468
H45   H     H_    0.862154 0.528733 0.916373 0.138260
H46   H     H_    0.531849 0.137892 0.918269 0.139478
H47   H     H_    0.137848 0.471238 0.916390 0.138271
H48   H     H_    0.468172 0.862108 0.918254 0.139470
O1    O     O_R   0.566060 0.037360 0.500050 -0.619655
O2    O     O_R   0.962640 0.566060 0.500050 -0.619652
O3    O     O_R   0.433940 0.962640 0.500050 -0.619653
O4    O     O_R   0.037360 0.433940 0.500050 -0.619654
O5    O     O_R   0.433940 0.037360 0.499950 -0.619659
O6    O     O_R   0.037360 0.566060 0.499950 -0.619647
O7    O     O_R   0.566060 0.962640 0.499950 -0.619660
O8    O     O_R   0.962640 0.433940 0.499950 -0.619649
O9    O     O_R   0.066060 0.537360 0.000050 -0.619518
O10   O     O_R   0.462640 0.066060 0.000050 -0.619801
O11   O     O_R   0.933940 0.462640 0.000050 -0.619516
O12   O     O_R   0.537360 0.933940 0.000050 -0.619799
O13   O     O_R   0.933940 0.537360 0.999950 -0.619521
O14   O     O_R   0.537360 0.066060 0.999950 -0.619796
O15   O     O_R   0.066060 0.462640 0.999950 -0.619523
O16   O     O_R   0.462640 0.933940 0.999950 -0.619793
O17   O     O_R   0.499980 0.037350 0.582800 -0.616021
O18   O     O_R   0.962650 0.499980 0.582800 -0.616052
O19   O     O_R   0.500020 0.962650 0.582800 -0.616020
O20   O     O_R   0.037350 0.500020 0.582800 -0.616051
O21   O     O_R   0.500020 0.037350 0.417200 -0.616022
O22   O     O_R   0.037350 0.499980 0.417200 -0.616048
O23   O     O_R   0.499980 0.962650 0.417200 -0.616025
O24   O     O_R   0.962650 0.500020 0.417200 -0.616048
O25   O     O_R   0.999980 0.537350 0.082800 -0.616017
O26   O     O_R   0.462650 0.999980 0.082800 -0.616057
O27   O     O_R   0.000020 0.462650 0.082800 -0.616013
O28   O     O_R   0.537350 0.000020 0.082800 -0.616054
O29   O     O_R   0.000020 0.537350 0.917200 -0.616017
O30   O     O_R   0.537350 0.999980 0.917200 -0.616054
O31   O     O_R   0.999980 0.462650 0.917200 -0.616020
O32   O     O_R   0.462650 0.000020 0.917200 -0.616052
O33   O     O_R   0.999980 0.933940 0.546750 -0.632222
O34   O     O_R   0.066060 0.999980 0.546750 -0.632213
O35   O     O_R   0.000020 0.066060 0.546750 -0.632221
O36   O     O_R   0.933940 0.000020 0.546750 -0.632214
O37   O     O_R   0.000020 0.933940 0.453250 -0.632225
O38   O     O_R   0.933940 0.999980 0.453250 -0.632209
O39   O     O_R   0.999980 0.066060 0.453250 -0.632226
O40   O     O_R   0.066060 0.000020 0.453250 -0.632208
O41   O     O_R   0.499980 0.433940 0.046750 -0.632139
O42   O     O_R   0.566060 0.499980 0.046750 -0.632304
O43   O     O_R   0.500020 0.566060 0.046750 -0.632135
O44   O     O_R   0.433940 0.500020 0.046750 -0.632305
O45   O     O_R   0.500020 0.433940 0.953250 -0.632140
O46   O     O_R   0.433940 0.499980 0.953250 -0.632298
O47   O     O_R   0.499980 0.566060 0.953250 -0.632140
O48   O     O_R   0.566060 0.500020 0.953250 -0.632298
Zn1   Zn    Zn3+2 0.500000 0.049860 0.500000 0.962345
Zn2   Zn    Zn3+2 0.950140 0.500000 0.500000 0.962218
Zn3   Zn    Zn3+2 0.500000 0.950140 0.500000 0.962345
Zn4   Zn    Zn3+2 0.049860 0.500000 0.500000 0.962219
Zn5   Zn    Zn3+2 0.000000 0.549860 0.000000 0.962463
Zn6   Zn    Zn3+2 0.450140 0.000000 0.000000 0.962090
Zn7   Zn    Zn3+2 0.000000 0.450140 0.000000 0.962464
Zn8   Zn    Zn3+2 0.549860 0.000000 0.000000 0.962090
Zn9   Zn    Zn3+2 1.000000 0.000000 0.562420 0.919534
Zn10  Zn    Zn3+2 1.000000 0.000000 0.437580 0.919534
Zn11  Zn    Zn3+2 0.500000 0.500000 0.062420 0.919526
Zn12  Zn    Zn3+2 0.500000 0.500000 0.937580 0.919536
C169  C     C_3   0.864267 0.938477 0.422624 -0.390682
C170  C     C_3   0.843844 0.892049 0.430292 -0.374379
C171  C     C_3   0.873513 0.856098 0.404795 -0.895846
H49   H     H_    0.877802 0.861728 0.358420 0.267074
H50   H     H_    0.906581 0.856072 0.425593 0.264687
H51   H     H_    0.858015 0.823117 0.411296 0.253627
H52   H     H_    0.838765 0.885337 0.476133 0.238949
H53   H     H_    0.811082 0.889551 0.409353 0.231635
H54   H     H_    0.863460 0.948231 0.377073 0.193077
H55   H     H_    0.899451 0.934446 0.434223 0.236267
C172  C     C_3   0.061374 0.864200 0.422451 -0.390530
C173  C     C_3   0.107783 0.843680 0.429948 -0.374413
C174  C     C_3   0.143727 0.873268 0.404302 -0.895947
H56   H     H_    0.138010 0.877535 0.357940 0.267075
H57   H     H_    0.143844 0.906351 0.425062 0.264601
H58   H     H_    0.176698 0.857714 0.410711 0.253682
H59   H     H_    0.114593 0.838595 0.475765 0.238936
H60   H     H_    0.110177 0.810909 0.409010 0.231706
H61   H     H_    0.051532 0.863446 0.376930 0.193121
H62   H     H_    0.065488 0.899364 0.434094 0.236246
C175  C     C_3   0.135741 0.061506 0.422607 -0.390674
C176  C     C_3   0.156175 0.107930 0.430266 -0.374385
C177  C     C_3   0.126521 0.143883 0.404745 -0.895862
H63   H     H_    0.122246 0.138246 0.358369 0.267072
H64   H     H_    0.093446 0.143919 0.425527 0.264682
H65   H     H_    0.142024 0.176862 0.411245 0.253633
H66   H     H_    0.161245 0.114651 0.476107 0.238943
H67   H     H_    0.188943 0.110417 0.409339 0.231650
H68   H     H_    0.136547 0.051747 0.377058 0.193085
H69   H     H_    0.100559 0.065546 0.434208 0.236256
C178  C     C_3   0.938621 0.135797 0.422457 -0.390535
C179  C     C_3   0.892211 0.156314 0.429960 -0.374421
C180  C     C_3   0.856269 0.126726 0.404310 -0.895956
H70   H     H_    0.861986 0.122464 0.357948 0.267078
H71   H     H_    0.856154 0.093641 0.425065 0.264601
H72   H     H_    0.823297 0.142277 0.410723 0.253684
H73   H     H_    0.885402 0.161395 0.475778 0.238935
H74   H     H_    0.889814 0.189086 0.409026 0.231709
H75   H     H_    0.948461 0.136553 0.376936 0.193124
H76   H     H_    0.934510 0.100633 0.434099 0.236243
C181  C     C_3   0.135772 0.938497 0.577377 -0.390702
C182  C     C_3   0.156222 0.892079 0.569670 -0.374384
C183  C     C_3   0.126619 0.856118 0.595249 -0.895909
H77   H     H_    0.122407 0.861746 0.641636 0.267073
H78   H     H_    0.093516 0.856081 0.574543 0.264669
H79   H     H_    0.142129 0.823142 0.588703 0.253636
H80   H     H_    0.161236 0.885365 0.523818 0.238923
H81   H     H_    0.189019 0.889600 0.590526 0.231702
H82   H     H_    0.136584 0.948237 0.622932 0.193102
H83   H     H_    0.100588 0.934458 0.565790 0.236219
C184  C     C_3   0.938608 0.864241 0.577556 -0.390507
C185  C     C_3   0.892188 0.843749 0.570105 -0.374411
C186  C     C_3   0.856257 0.873405 0.595677 -0.895883
H84   H     H_    0.861981 0.877747 0.642025 0.267075
H85   H     H_    0.856149 0.906452 0.574825 0.264618
H86   H     H_    0.823279 0.857863 0.589318 0.253675
H87   H     H_    0.885374 0.838598 0.524302 0.238964
H88   H     H_    0.889776 0.811013 0.591128 0.231637
H89   H     H_    0.948469 0.863492 0.623070 0.193099
H90   H     H_    0.934502 0.899405 0.565899 0.236297
C187  C     C_3   0.864222 0.061496 0.577382 -0.390701
C188  C     C_3   0.843767 0.107911 0.569674 -0.374393
C189  C     C_3   0.873359 0.143874 0.595266 -0.895914
H91   H     H_    0.877560 0.138246 0.641655 0.267071
H92   H     H_    0.906468 0.143916 0.574574 0.264672
H93   H     H_    0.857848 0.176849 0.588716 0.253636
H94   H     H_    0.838762 0.114627 0.523820 0.238922
H95   H     H_    0.810966 0.110386 0.590518 0.231711
H96   H     H_    0.863409 0.051757 0.622937 0.193107
H97   H     H_    0.899406 0.065538 0.565796 0.236210
C190  C     C_3   0.061399 0.135760 0.577542 -0.390527
C191  C     C_3   0.107818 0.156249 0.570066 -0.374413
C192  C     C_3   0.143752 0.126602 0.595645 -0.895888
H98   H     H_    0.138036 0.122278 0.641997 0.267077
H99   H     H_    0.143855 0.093547 0.574813 0.264620
H100  H     H_    0.176729 0.142140 0.589265 0.253673
H101  H     H_    0.114623 0.161382 0.524258 0.238957
H102  H     H_    0.110234 0.188993 0.591068 0.231652
H103  H     H_    0.051549 0.136517 0.623060 0.193101
H104  H     H_    0.065500 0.100595 0.565893 0.236288
C193  C     C_3   0.364086 0.439392 0.921398 -0.389427
C194  C     C_3   0.343175 0.393035 0.927580 -0.374584
C195  C     C_3   0.372734 0.357216 0.901565 -0.896303
H105  H     H_    0.377374 0.363477 0.855379 0.267064
H106  H     H_    0.405666 0.356624 0.922700 0.264238
H107  H     H_    0.356931 0.324274 0.907116 0.253900
H108  H     H_    0.337610 0.385636 0.973155 0.239041
H109  H     H_    0.310591 0.391153 0.906090 0.231630
H110  H     H_    0.363686 0.449873 0.876105 0.193199
H111  H     H_    0.399128 0.434827 0.933387 0.236450
C196  C     C_3   0.562297 0.364384 0.923722 -0.391849
C197  C     C_3   0.608749 0.344376 0.932772 -0.374243
C198  C     C_3   0.644826 0.374043 0.907593 -0.895427
H112  H     H_    0.639750 0.377907 0.861051 0.267075
H113  H     H_    0.644382 0.407279 0.927939 0.265059
H114  H     H_    0.677818 0.358804 0.914986 0.253398
H115  H     H_    0.614847 0.339845 0.978847 0.238801
H116  H     H_    0.611757 0.311406 0.912482 0.231761
H117  H     H_    0.553218 0.363201 0.877957 0.193015
H118  H     H_    0.565866 0.399689 0.934932 0.236036
C199  C     C_3   0.635919 0.560596 0.921384 -0.389430
C200  C     C_3   0.656832 0.606952 0.927558 -0.374577
C201  C     C_3   0.627280 0.642769 0.901531 -0.896311
H119  H     H_    0.622644 0.636503 0.855345 0.267062
H120  H     H_    0.594346 0.643368 0.922661 0.264232
H121  H     H_    0.643085 0.675711 0.907077 0.253904
H122  H     H_    0.662393 0.614357 0.973132 0.239035
H123  H     H_    0.689420 0.608827 0.906073 0.231638
H124  H     H_    0.636319 0.550110 0.876092 0.193198
H125  H     H_    0.600876 0.565165 0.933371 0.236455
C202  C     C_3   0.437718 0.635616 0.923697 -0.391817
C203  C     C_3   0.391264 0.655633 0.932707 -0.374249
C204  C     C_3   0.355194 0.625960 0.907522 -0.895434
H126  H     H_    0.360285 0.622084 0.860984 0.267074
H127  H     H_    0.355629 0.592730 0.927882 0.265051
H128  H     H_    0.322199 0.641203 0.914891 0.253401
H129  H     H_    0.385148 0.660181 0.978775 0.238815
H130  H     H_    0.388266 0.688595 0.912397 0.231749
H131  H     H_    0.446817 0.636788 0.877938 0.193021
H132  H     H_    0.434138 0.600315 0.934920 0.236039
C205  C     C_3   0.635959 0.439442 0.078638 -0.389414
C206  C     C_3   0.656911 0.393096 0.072477 -0.374607
C207  C     C_3   0.627424 0.357279 0.098603 -0.896380
H133  H     H_    0.622838 0.363575 0.144790 0.267055
H134  H     H_    0.594464 0.356646 0.077539 0.264210
H135  H     H_    0.643254 0.324344 0.093064 0.253925
H136  H     H_    0.662425 0.385665 0.026899 0.239016
H137  H     H_    0.689526 0.391254 0.093899 0.231699
H138  H     H_    0.636346 0.449936 0.123927 0.193237
H139  H     H_    0.600921 0.434850 0.066646 0.236406
C208  C     C_3   0.437709 0.364420 0.076319 -0.391789
C209  C     C_3   0.391245 0.344425 0.067366 -0.374252
C210  C     C_3   0.355189 0.374165 0.092482 -0.895386
H140  H     H_    0.360293 0.378121 0.139006 0.267073
H141  H     H_    0.355629 0.407359 0.072025 0.265065
H142  H     H_    0.322188 0.358929 0.085173 0.253400
H143  H     H_    0.385120 0.339806 0.021313 0.238845
H144  H     H_    0.388233 0.311499 0.087767 0.231680
H145  H     H_    0.446832 0.363258 0.122070 0.193001
H146  H     H_    0.434132 0.399720 0.065079 0.236086
C211  C     C_3   0.364044 0.560579 0.078611 -0.389439
C212  C     C_3   0.343102 0.606926 0.072410 -0.374588
C213  C     C_3   0.372598 0.642751 0.098503 -0.896370
H147  H     H_    0.377180 0.636482 0.144697 0.267061
H148  H     H_    0.405559 0.643362 0.077441 0.264216
H149  H     H_    0.356779 0.675688 0.092930 0.253912
H150  H     H_    0.337590 0.614334 0.026827 0.239019
H151  H     H_    0.310488 0.608786 0.093831 0.231690
H152  H     H_    0.363646 0.550104 0.123907 0.193224
H153  H     H_    0.399085 0.565157 0.066629 0.236406
C214  C     C_3   0.562289 0.635584 0.076313 -0.391795
C215  C     C_3   0.608750 0.655582 0.067342 -0.374246
C216  C     C_3   0.644812 0.625855 0.092466 -0.895388
H154  H     H_    0.639715 0.621916 0.138993 0.267072
H155  H     H_    0.644373 0.592654 0.072029 0.265066
H156  H     H_    0.677811 0.641092 0.085139 0.253400
H157  H     H_    0.614870 0.660185 0.021284 0.238835
H158  H     H_    0.611759 0.688516 0.087724 0.231697
H159  H     H_    0.553174 0.636750 0.122067 0.193000
H160  H     H_    0.565867 0.600284 0.065077 0.236079

loop_
_geom_bond_atom_site_label_1
_geom_bond_atom_site_label_2
_ccdc_geom_bond_type
C181  H83   S    
C117  C205  S    
C214  C215  S    
C115  C141  A    
C193  C194  S    
C130  C146  A    
C33   C45   A    
C35   C47   A    
C10   C154  A    
C83   O21   A    
C187  C188  S    
O38   Zn10  S    
C77   O45   A    
C182  H80   S    
C14   C158  A    
C112  C124  A    
O30   Zn8   S    
C26   C50   A    
C204  H127  S    
C60   C72   A    
C193  H110  S    
C22   C38   A    
C154  H2    S    
O21   Zn1   S    
C175  H68   S    
O44   Zn11  S    
O13   Zn5   S    
C158  H6    S    
C95   C103  T    
C205  H139  S    
C5    O15   A    
C173  H60   S    
C140  C152  A    
C129  C145  A    
C198  H114  S    
C61   C71   A    
C58   H42   S    
C74   C123  S    
C34   C46   A    
C62   H46   S    
O40   Zn10  S    
C117  C139  A    
C108  C124  A    
C78   C127  S    
C184  H90   S    
C55   C65   A    
C209  H144  S    
C50   H34   S    
C134  C146  A    
C57   H41   S    
O41   Zn11  S    
C135  C159  A    
C106  C172  S    
C206  H137  S    
C213  H149  S    
C93   C101  T    
C58   C70   A    
C28   C44   A    
C29   C53   A    
C132  C148  A    
C185  H87   S    
O6    Zn4   S    
C11   C27   A    
C86   O26   A    
C138  C162  A    
C60   H44   S    
C23   C167  A    
C211  H153  S    
C96   C104  T    
C204  H126  S    
C81   O17   A    
C214  H160  S    
C176  C177  S    
C161  H9    S    
C202  C203  S    
C76   O36   A    
C40   C48   A    
C15   H23   S    
O28   Zn8   S    
C78   O48   A    
C21   H29   S    
C87   O31   A    
C83   C91   S    
C1    O7    A    
C79   O43   A    
C208  H146  S    
O22   Zn4   S    
C19   C35   A    
O10   Zn6   S    
C137  C161  A    
C7    O11   A    
C191  C192  S    
C27   C51   A    
C5    O9    A    
C171  H50   S    
C54   H38   S    
C179  H73   S    
C88   O30   A    
C212  H150  S    
C22   C166  A    
C143  C149  A    
C24   H32   S    
C195  H105  S    
C34   C58   A    
C200  C201  S    
C118  C138  A    
C203  H130  S    
C38   C62   A    
C197  H116  S    
C183  H78   S    
C113  C193  S    
C192  H98   S    
C16   C160  A    
C213  H147  S    
C166  H14   S    
C8    O12   A    
C191  H102  S    
C216  H154  S    
C30   C54   A    
C62   C70   A    
O48   Zn12  S    
C75   O39   A    
O37   Zn10  S    
O8    Zn2   S    
C114  C126  A    
C88   O32   A    
C188  H94   S    
O2    Zn2   S    
C116  C144  A    
C85   C93   S    
C63   C69   A    
C172  H61   S    
C203  C204  S    
C87   C95   S    
C204  H128  S    
C185  H88   S    
C81   O19   A    
C194  H109  S    
C120  C140  A    
C190  H104  S    
C37   C47   A    
C76   O38   A    
C11   C155  A    
C105  C135  A    
C9    C153  A    
C77   O41   A    
C169  C170  S    
C186  H85   S    
C119  C211  S    
C61   H45   S    
C12   C156  A    
C13   C157  A    
C59   H43   S    
C87   O29   A    
C73   O33   A    
C180  H71   S    
O19   Zn3   S    
C118  C208  S    
C49   H33   S    
O39   Zn10  S    
C75   C124  S    
C80   O46   A    
O12   Zn8   S    
C4    C68   S    
C109  C123  A    
C201  H121  S    
C51   C67   A    
C135  C145  A    
C56   C68   A    
C169  H54   S    
C156  H4    S    
C109  C181  S    
C196  H118  S    
C142  C166  A    
C50   C66   A    
C106  C122  A    
C111  C187  S    
C174  H56   S    
C41   C145  A    
C130  C154  A    
C19   C163  A    
C210  H142  S    
C143  C167  A    
C136  C148  A    
C17   C161  A    
C187  H97   S    
C134  C158  A    
C192  H100  S    
C170  H52   S    
C6    O14   A    
C163  H11   S    
C178  H75   S    
C215  C216  S    
C26   C42   A    
C2    O2    A    
C216  H156  S    
C181  H82   S    
C209  H143  S    
C31   C41   A    
C189  H92   S    
C190  H103  S    
C185  C186  S    
C2    C66   S    
C15   C31   A    
C54   C66   A    
C16   C32   A    
C55   H39   S    
C141  C165  A    
C182  H81   S    
C63   H47   S    
C139  C163  A    
C210  H140  S    
C81   C89   S    
C144  C152  A    
C205  C206  S    
C129  C153  A    
C18   C34   A    
C139  C151  A    
C100  C101  S    
C10   H18   S    
O25   Zn5   S    
C36   C48   A    
C195  H107  S    
C133  C157  A    
C176  H66   S    
C53   C67   A    
C177  H65   S    
C38   C46   A    
O17   Zn1   S    
C136  C160  A    
O34   Zn9   S    
C106  C134  A    
C189  H93   S    
O32   Zn6   S    
C170  C171  S    
C84   C92   S    
C91   C99   T    
C110  C184  S    
C198  H113  S    
C215  H157  S    
C88   C96   S    
C82   O20   A    
C79   O47   A    
C107  C123  A    
C199  H125  S    
C184  H89   S    
C9    C25   A    
C201  H119  S    
O45   Zn12  S    
C92   C100  T    
C12   C28   A    
O3    Zn3   S    
C13   C29   A    
C213  H148  S    
C198  H112  S    
C18   H26   S    
C98   C103  S    
C20   C164  A    
C2    O6    A    
C174  H58   S    
C21   C165  A    
C35   C59   A    
C186  H84   S    
C200  H122  S    
C197  C198  S    
C5    C69   S    
C202  H132  S    
C111  C129  A    
C114  C196  S    
C4    O4    A    
C109  C131  A    
C171  H49   S    
O43   Zn11  S    
C164  H12   S    
C211  H152  S    
C3    O5    A    
C29   C43   A    
C214  H159  S    
C116  C202  S    
C17   C33   A    
C75   O35   A    
C51   H35   S    
C8    C72   S    
C205  H138  S    
C178  C179  S    
C107  C175  S    
C190  C191  S    
C203  H129  S    
C113  C143  A    
C52   H36   S    
C208  H145  S    
C177  H63   S    
C15   C159  A    
O24   Zn2   S    
O31   Zn7   S    
C172  C173  S    
C56   H40   S    
O5    Zn1   S    
C85   O25   A    
C78   O42   A    
O23   Zn3   S    
C173  H59   S    
C112  C132  A    
C117  C127  A    
O9    Zn5   S    
C179  H74   S    
C212  H151  S    
C119  C125  A    
C47   C151  A    
O1    Zn1   S    
C82   O18   A    
C132  C156  A    
O16   Zn6   S    
C140  C164  A    
C25   C41   A    
C42   C146  A    
C114  C142  A    
C39   C63   A    
C7    O13   A    
C6    C70   S    
O42   Zn11  S    
C206  H136  S    
C22   H30   S    
C84   O22   A    
O27   Zn7   S    
C120  C128  A    
C8    O16   A    
C82   C90   S    
C142  C150  A    
C131  C155  A    
C193  H111  S    
C184  C185  S    
C107  C133  A    
C110  C122  A    
C18   C162  A    
C188  H95   S    
C6    O10   A    
C110  C130  A    
C25   C49   A    
C97   C104  S    
C201  H120  S    
C183  H77   S    
C20   C36   A    
C27   C43   A    
C99   C102  S    
C21   C37   A    
C209  C210  S    
C3    O3    A    
C73   C122  S    
C153  H1    S    
O20   Zn4   S    
C30   C42   A    
C1    O1    A    
C31   C55   A    
C32   C56   A    
C77   C126  S    
C207  H133  S    
C157  H5    S    
C207  H135  S    
C79   C128  S    
C19   H27   S    
C111  C121  A    
C105  C169  S    
C175  C176  S    
C17   H25   S    
C196  C197  S    
C211  C212  S    
C115  C127  A    
C207  H134  S    
C180  H70   S    
C138  C150  A    
C49   C65   A    
C181  C182  S    
C144  C168  A    
C11   H19   S    
C76   C121  S    
O26   Zn6   S    
C24   C168  A    
C112  C190  S    
C108  C136  A    
C9    H17   S    
C7    C71   S    
C197  H115  S    
O18   Zn2   S    
C113  C125  A    
C80   C125  S    
C12   H20   S    
C23   H31   S    
C85   O27   A    
C13   H21   S    
C172  H62   S    
C196  H117  S    
C171  H51   S    
C16   H24   S    
C24   C40   A    
C167  H15   S    
C189  H91   S    
C108  C178  S    
C168  H16   S    
O15   Zn7   S    
C53   H37   S    
C208  C209  S    
C120  C214  S    
C80   O44   A    
C210  H141  S    
C86   C94   S    
O36   Zn9   S    
O7    Zn3   S    
C52   C68   A    
C187  H96   S    
C10   C26   A    
C183  H79   S    
C192  H99   S    
C159  H7    S    
C160  H8    S    
C137  C149  A    
C84   O24   A    
C14   C30   A    
C174  H57   S    
C74   O34   A    
C191  H101  S    
C216  H155  S    
C83   O23   A    
C162  H10   S    
C119  C137  A    
C202  H131  S    
C4    O8    A    
C89   C97   T    
C14   H22   S    
O29   Zn5   S    
C182  C183  S    
C115  C199  S    
C1    C65   S    
C32   C44   A    
C105  C121  A    
C194  H108  S    
C195  H106  S    
C176  H67   S    
C131  C147  A    
C177  H64   S    
C199  C200  S    
C133  C147  A    
O11   Zn7   S    
C46   C150  A    
O47   Zn12  S    
C186  H86   S    
O33   Zn9   S    
O4    Zn4   S    
C175  H69   S    
C179  C180  S    
C141  C151  A    
C212  C213  S    
C180  H72   S    
C215  H158  S    
C33   C57   A    
C64   H48   S    
C3    C67   S    
O35   Zn9   S    
C199  H124  S    
C36   C60   A    
C37   C61   A    
O46   Zn12  S    
C169  H55   S    
C40   C64   A    
C39   C45   A    
C165  H13   S    
C173  C174  S    
C48   C152  A    
C73   O37   A    
C28   C52   A    
O14   Zn8   S    
C23   C39   A    
C44   C148  A    
C20   H28   S    
C45   C149  A    
C64   C72   A    
C200  H123  S    
C194  C195  S    
C43   C147  A    
C155  H3    S    
C86   O28   A    
C188  C189  S    
C116  C128  A    
C206  C207  S    
C170  H53   S    
C178  H76   S    
C118  C126  A    
C57   C69   A    
C90   C98   T    
C74   O40   A    
C94   C102  T    
C59   C71   A    
