data_mof_unit_pretest_1084.cif
_audit_creation_date              2012-12-10T18:18:17-0500
_audit_creation_method            fapswitch 2.2
_symmetry_space_group_name_H-M    P1
_symmetry_Int_Tables_number       1
_space_group_crystal_system       triclinic
_cell_length_a                    14.067535
_cell_length_b                    14.922744
_cell_length_c                    15.265386
_cell_angle_alpha                 89.858773
_cell_angle_beta                  68.479552
_cell_angle_gamma                 90.917258
_cell_volume                      2980.6995225

loop_
_atom_site_label
_atom_site_type_symbol
_atom_type_description
_atom_site_fract_x
_atom_site_fract_y
_atom_site_fract_z
_atom_type_partial_charge
C1    C     C_R   0.498676 0.672735 0.504523 0.934003
C2    C     C_R   0.500124 0.327210 0.498039 0.936315
C3    C     C_R   0.358295 0.424613 0.115761 0.517672
C4    C     C_R   0.588804 0.367725 0.914736 0.532035
C5    C     C_R   0.286702 0.435112 0.071836 0.390464
C6    C     C_R   0.661552 0.361584 0.957450 0.418116
C7    C     C_R   0.453009 0.187651 0.581201 -0.204500
C8    C     C_R   0.555022 0.813033 0.425327 -0.189056
C9    C     C_R   0.498958 0.232088 0.496305 -0.190084
C10   C     C_R   0.497891 0.767998 0.507390 -0.191823
C11   C     C_R   0.543556 0.187011 0.411274 0.521439
C12   C     C_R   0.438406 0.812602 0.589368 0.503271
C13   C     C_R   0.547652 0.092935 0.412778 -0.128692
C14   C     C_R   0.439959 0.906997 0.588925 -0.123564
C15   C     C_R   0.497582 0.046918 0.499980 -0.097795
C16   C     C_R   0.496705 0.953216 0.503273 -0.096818
C17   C     C_R   0.449940 0.094853 0.584367 0.006137
C18   C     C_R   0.554194 0.905695 0.421221 0.002082
C19   C     C_R   0.600975 0.044077 0.330342 0.481442
C20   C     C_R   0.387745 0.956356 0.671396 0.482158
C21   C     C_R   0.609815 0.951223 0.336660 0.275202
C22   C     C_R   0.400311 0.049560 0.670243 0.268109
C23   C     C_R   0.436453 0.498761 0.676948 0.908327
C24   C     C_R   0.563317 0.499483 0.323202 0.917066
C25   C     C_R   0.178337 0.440055 0.556012 0.457306
C26   C     C_R   0.821817 0.559771 0.443682 0.463602
C27   C     C_R   0.225110 0.560207 0.445026 -0.026788
C28   C     C_R   0.775283 0.439307 0.554314 -0.020731
C29   C     C_R   0.124948 0.562685 0.444146 -0.050489
C30   C     C_R   0.875655 0.436620 0.554736 -0.080493
C31   C     C_R   0.050841 0.499899 0.499627 0.007307
C32   C     C_R   0.949588 0.499730 0.499606 0.000580
C33   C     C_R   0.077736 0.437509 0.555575 -0.104153
C34   C     C_R   0.922667 0.562115 0.443690 -0.093904
C35   C     C_R   0.096627 0.625899 0.389780 0.347492
C36   C     C_R   0.904523 0.372665 0.608038 0.416730
C37   C     C_R   0.997100 0.624912 0.389445 -0.199689
C38   C     C_R   0.003729 0.374108 0.608980 -0.179399
C39   C     C_R   0.396560 0.485341 0.779611 -0.199175
C40   C     C_R   0.599147 0.480489 0.222312 -0.217303
C41   C     C_R   0.253730 0.464368 0.927658 -0.111079
C42   C     C_R   0.716759 0.405289 0.086420 -0.119766
C43   C     C_R   0.290915 0.481492 0.830978 -0.233696
C44   C     C_R   0.694377 0.441959 0.175585 -0.207430
C45   C     C_R   0.464773 0.469633 0.825972 0.537697
C46   C     C_R   0.528259 0.485197 0.177495 0.567010
C47   C     C_R   0.427088 0.438326 0.919598 -0.066931
C48   C     C_R   0.542483 0.433677 0.097017 -0.067831
C49   C     C_R   0.321505 0.445246 0.973368 -0.080536
C50   C     C_R   0.641018 0.399789 0.046645 -0.145659
C51   C     C_R   0.493886 0.409546 0.963428 -0.221681
C52   C     C_R   0.464377 0.423380 0.060249 -0.185271
H1    H     H_    0.283951 0.606483 0.402520 0.214848
H2    H     H_    0.716587 0.392879 0.596796 0.224945
H3    H     H_    0.978898 0.674377 0.346394 0.234613
H4    H     H_    0.022313 0.323980 0.651153 0.227130
H5    H     H_    0.750421 0.438389 0.208672 0.206530
H6    H     H_    0.237013 0.493777 0.796887 0.204962
H7    H     H_    0.172076 0.466495 0.966336 0.196557
H8    H     H_    0.792124 0.378588 0.050386 0.199988
H9    H     H_    0.418519 0.227003 0.644185 0.213783
H10   H     H_    0.597650 0.774029 0.364125 0.220633
N1    N     N_R   0.249980 0.499930 0.499960 -0.147310
N2    N     N_R   0.750020 0.500070 0.500040 -0.148111
O1    O     O_R   0.419720 0.632140 0.499980 -0.650660
O2    O     O_R   0.580280 0.367860 0.500020 -0.611366
O3    O     O_R   0.580270 0.632160 0.499970 -0.558658
O4    O     O_R   0.419730 0.367840 0.500030 -0.580829
O5    O     O_R   0.373870 0.499980 0.632250 -0.599442
O6    O     O_R   0.626130 0.500020 0.367750 -0.572530
O7    O     O_R   0.534420 0.500000 0.632240 -0.569621
O8    O     O_R   0.465580 0.500000 0.367760 -0.574550
Zn1   Zn    Zn3+2 0.392800 0.499980 0.500010 1.001094
Zn2   Zn    Zn3+2 0.607200 0.500020 0.499990 1.039048
O9    O     O_3   0.183147 0.435039 0.125221 -0.610699
C53   C     C_3   0.156965 0.521008 0.163753 -0.201917
H11   H     H_    0.173886 0.573207 0.107593 0.157613
H12   H     H_    0.196728 0.537996 0.212569 0.225039
H13   H     H_    0.073587 0.521409 0.204956 0.198232
O10   O     O_3   0.756723 0.327551 0.906727 -0.550705
C54   C     C_3   0.756941 0.236357 0.930992 -0.198222
H14   H     H_    0.701000 0.196392 0.910751 0.162439
H15   H     H_    0.741642 0.227264 0.007349 0.131515
H16   H     H_    0.833855 0.209575 0.891531 0.218515
Cl1   Cl    Cl    0.211702 0.367850 0.631262 -0.610323
Cl2   Cl    Cl    0.788456 0.631871 0.368358 -0.584374
Cl3   Cl    Cl    0.183091 0.708463 0.320981 -0.660775
Cl4   Cl    Cl    0.820469 0.286705 0.672216 -0.558193
O11   O     O_3   0.445719 0.541622 0.212085 -0.566591
C55   C     C_3   0.476185 0.627217 0.171296 -0.277627
H17   H     H_    0.500502 0.624979 0.093208 0.152950
H18   H     H_    0.538230 0.656589 0.191746 0.166324
H19   H     H_    0.409860 0.672192 0.197869 0.236242
O12   O     O_3   0.568238 0.488267 0.781050 -0.559131
C56   C     C_3   0.588212 0.576856 0.802304 -0.238711
H20   H     H_    0.571127 0.584881 0.879032 0.145897
H21   H     H_    0.544571 0.626016 0.777609 0.167614
H22   H     H_    0.670712 0.592214 0.764826 0.198408
O13   O     O_3   0.323866 0.411466 0.212246 -0.557435
C57   C     C_3   0.302485 0.319386 0.231694 -0.273461
H23   H     H_    0.369826 0.277799 0.193185 0.120056
H24   H     H_    0.283052 0.307837 0.308176 0.192783
H25   H     H_    0.235504 0.297313 0.214527 0.207511
O14   O     O_3   0.611971 0.330885 0.826210 -0.520354
C58   C     C_3   0.546807 0.256259 0.831903 -0.157012
H26   H     H_    0.470447 0.277852 0.835242 0.175785
H27   H     H_    0.538543 0.211321 0.892751 0.115046
H28   H     H_    0.580344 0.216329 0.766907 0.226375
O15   O     O_3   0.587848 0.235519 0.328271 -0.563762
C59   C     C_3   0.511049 0.258396 0.293518 -0.294475
H29   H     H_    0.454927 0.202772 0.300359 0.132274
H30   H     H_    0.547965 0.274995 0.217578 0.192374
H31   H     H_    0.469933 0.318605 0.329073 0.182024
O16   O     O_3   0.389891 0.764218 0.672025 -0.582908
C60   C     C_3   0.294415 0.729915 0.674768 -0.250856
H32   H     H_    0.264383 0.763007 0.624774 0.136691
H33   H     H_    0.237356 0.737926 0.746953 0.188896
H34   H     H_    0.299211 0.657002 0.661914 0.192903
O17   O     O_3   0.652591 0.088006 0.245566 -0.516861
C61   C     C_3   0.600644 0.073051 0.182975 -0.191903
H35   H     H_    0.616340 0.130909 0.133703 0.155917
H36   H     H_    0.516028 0.066625 0.218841 0.109280
H37   H     H_    0.630022 0.012880 0.139690 0.209739
O18   O     O_3   0.330146 0.913460 0.755066 -0.523910
C62   C     C_3   0.225294 0.924157 0.771333 -0.181869
H38   H     H_    0.206365 0.904439 0.709239 0.113568
H39   H     H_    0.200619 0.993860 0.791175 0.208546
H40   H     H_    0.179791 0.880277 0.831293 0.185508
Cl5   Cl    Cl    0.695724 0.893968 0.238574 -0.575216
Cl6   Cl    Cl    0.356355 0.107589 0.778719 -0.627057

loop_
_geom_bond_atom_site_label_1
_geom_bond_atom_site_label_2
_ccdc_geom_bond_type
C11   O15   S    
C34   C37   A    
C23   O5    A    
C56   H20   S    
C53   H13   S    
O16   C60   S    
C56   H22   S    
C24   O6    A    
C47   C49   A    
C46   O11   S    
C36   Cl4   S    
C40   C46   A    
C58   H27   S    
C35   C37   A    
C53   H12   S    
C2    O4    A    
C27   C29   A    
C35   Cl3   S    
C60   H32   S    
C18   C21   A    
O1    Zn1   S    
C7    C9    A    
C25   N1    A    
C26   N2    A    
C59   H29   S    
C7    H9    S    
C43   H6    S    
C1    O3    A    
C55   H18   S    
C26   C34   A    
O13   C57   S    
C60   H33   S    
O6    Zn2   S    
C62   H40   S    
C1    O1    A    
C31   C33   A    
O5    Zn1   S    
C61   H37   S    
C39   C45   A    
C48   C50   A    
C19   O17   S    
C22   Cl6   S    
C41   C43   A    
C5    C49   A    
C42   C44   A    
C45   O12   S    
C41   C49   A    
O14   C58   S    
C54   H15   S    
C61   H36   S    
C54   H14   S    
C12   O16   S    
C45   C47   A    
C58   H28   S    
C46   C48   A    
C13   C19   A    
C4    C51   A    
C51   C52   A    
C14   C20   A    
C53   H11   S    
C41   H7    S    
C4    C6    A    
C42   H8    S    
C28   H2    S    
O10   C54   S    
C39   C43   A    
N1    Zn1   S    
C7    C17   A    
O4    Zn1   S    
C57   H25   S    
C8    C18   A    
C32   C34   A    
C5    O9    S    
O9    C53   S    
C23   O7    A    
C6    O10   S    
C31   C32   A    
C40   C44   A    
C44   H5    S    
C26   Cl2   S    
C60   H34   S    
C25   Cl1   S    
O3    Zn2   S    
C6    C50   A    
O17   C61   S    
C9    C11   A    
C59   H31   S    
C21   Cl5   S    
C10   C12   A    
C42   C50   A    
C28   N2    A    
C16   C18   A    
C12   C14   A    
C13   C15   A    
C62   H38   S    
C14   C16   A    
C54   H16   S    
C61   H35   S    
C24   O8    A    
C55   H19   S    
C57   H24   S    
C15   C17   A    
C56   H21   S    
C19   C21   A    
C1    C10   S    
C33   C38   A    
C20   C22   A    
O8    Zn1   S    
C3    C5    A    
O7    Zn2   S    
C47   C51   A    
C3    C52   A    
C27   H1    S    
C2    O2    A    
C58   H26   S    
C29   C35   A    
C17   C22   A    
C30   C36   A    
C28   C30   A    
C29   C31   A    
O15   C59   S    
C30   C32   A    
C11   C13   A    
C55   H17   S    
C23   C39   S    
C4    O14   S    
C36   C38   A    
C57   H23   S    
C24   C40   S    
O12   C56   S    
C59   H30   S    
C20   O18   S    
C37   H3    S    
C3    O13   S    
C48   C52   A    
C38   H4    S    
C8    C10   A    
C8    H10   S    
C62   H39   S    
N2    Zn2   S    
C27   N1    A    
O11   C55   S    
C2    C9    S    
C15   C16   A    
C25   C33   A    
O18   C62   S    
O2    Zn2   S    
