data_mof_unit_pretest_307.cif
_audit_creation_date              2012-12-10T17:54:19-0500
_audit_creation_method            fapswitch 2.2
_symmetry_space_group_name_H-M    P1
_symmetry_Int_Tables_number       1
_space_group_crystal_system       triclinic
_cell_length_a                    27.692866
_cell_length_b                    10.607818
_cell_length_c                    9.958003
_cell_angle_alpha                 90.497302
_cell_angle_beta                  88.687989
_cell_angle_gamma                 92.510907
_cell_volume                      2921.61072241

loop_
_atom_site_label
_atom_site_type_symbol
_atom_type_description
_atom_site_fract_x
_atom_site_fract_y
_atom_site_fract_z
_atom_type_partial_charge
C1    C     C_R   0.501358 0.260987 0.499509 0.851741
C2    C     C_R   0.973776 0.400030 0.517637 0.046776
C3    C     C_R   0.976182 0.632320 0.496626 0.046972
C4    C     C_R   0.406350 0.502956 0.501123 0.867694
C5    C     C_R   0.949738 0.514662 0.504350 0.070187
C6    C     C_R   0.945933 0.284936 0.516504 -0.215204
C7    C     C_R   0.895997 0.282983 0.509310 -0.136361
C8    C     C_R   0.871948 0.395406 0.502052 -0.021328
C9    C     C_R   0.898624 0.511554 0.498759 -0.052070
C10   C     C_R   0.874050 0.624571 0.490150 -0.020399
C11   C     C_R   0.823542 0.619364 0.486257 0.503127
C12   C     C_R   0.277044 0.467248 0.400926 -0.098806
C13   C     C_R   0.821505 0.394547 0.497629 0.503420
C14   C     C_R   0.721499 0.480019 0.612084 -0.110490
C15   C     C_R   0.671351 0.478928 0.614355 -0.238461
C16   C     C_R   0.501206 0.739326 0.500368 0.863996
C17   C     C_R   0.672603 0.521839 0.374858 -0.205769
C18   C     C_R   0.722821 0.523405 0.373076 -0.102147
C19   C     C_R   0.747168 0.502664 0.491689 0.326428
C20   C     C_R   0.024664 0.403781 0.529799 0.046865
C21   C     C_R   0.051294 0.520448 0.514217 0.070512
C22   C     C_R   0.027409 0.634506 0.495000 0.046209
C23   C     C_R   0.254035 0.526097 0.509525 0.316778
C24   C     C_R   0.050045 0.294496 0.557832 -0.216856
C25   C     C_R   0.105910 0.747783 0.474120 -0.136603
C26   C     C_R   0.950234 0.744118 0.491157 -0.215014
C27   C     C_R   0.900173 0.740000 0.487617 -0.137459
C28   C     C_R   0.593852 0.500251 0.498644 0.835509
C29   C     C_R   0.055835 0.746955 0.473231 -0.215533
C30   C     C_R   0.583514 0.141786 0.611607 -0.177530
C31   C     C_R   0.621939 0.080851 0.666691 -0.112999
C32   C     C_R   0.621765 0.949651 0.667630 -0.117307
C33   C     C_R   0.583161 0.878967 0.613497 -0.195337
C34   C     C_R   0.102454 0.522878 0.517084 -0.051906
C35   C     C_R   0.543641 0.939413 0.558526 0.091714
C36   C     C_R   0.543842 0.071513 0.557421 0.096856
C37   C     C_R   0.504606 0.129004 0.498565 -0.092362
C38   C     C_R   0.466935 0.060142 0.438807 -0.225596
C39   C     C_R   0.466765 0.931376 0.439711 -0.197957
C40   C     C_R   0.177131 0.415142 0.539474 0.502212
C41   C     C_R   0.504193 0.872065 0.500820 -0.094956
C42   C     C_R   0.450294 0.307371 0.145294 -0.143156
C43   C     C_R   0.437572 0.193986 0.083351 -0.228258
C44   C     C_R   0.440427 0.185295 0.945211 -0.233222
C45   C     C_R   0.126616 0.411220 0.539824 -0.019416
C46   C     C_R   0.450265 0.294965 0.869746 0.251327
C47   C     C_R   0.475570 0.401528 0.929973 0.117861
C48   C     C_R   0.475701 0.403823 0.074257 0.132855
C49   C     C_R   0.523311 0.592445 0.070474 -0.109746
C50   C     C_R   0.523189 0.592646 0.927766 -0.119211
C51   C     C_R   0.180122 0.636244 0.495843 0.504889
C52   C     C_R   0.281037 0.580948 0.613402 -0.100129
C53   C     C_R   0.331066 0.574751 0.609998 -0.241043
C54   C     C_R   0.327021 0.460873 0.397375 -0.223710
C55   C     C_3   0.371119 0.336788 0.795346 -0.747766
C56   C     C_R   0.100054 0.298341 0.562237 -0.138085
C57   C     C_R   0.129590 0.636747 0.496328 -0.021257
C58   C     C_R   0.354129 0.512764 0.503062 -0.040287
C59   C     C_R   0.646574 0.500132 0.495750 -0.037167
H1    H     H_    0.344366 0.413301 0.313776 0.151730
H2    H     H_    0.585599 0.243676 0.610343 0.149778
H3    H     H_    0.652135 0.135638 0.707614 0.152027
H4    H     H_    0.256043 0.425160 0.320411 0.140991
H5    H     H_    0.651826 0.902469 0.709306 0.152369
H6    H     H_    0.584989 0.777356 0.613621 0.145802
H7    H     H_    0.436958 0.877574 0.394946 0.156108
H8    H     H_    0.542562 0.668052 0.123096 0.149920
H9    H     H_    0.438738 0.318290 0.247465 0.196902
H10   H     H_    0.421318 0.116633 0.141226 0.162455
H11   H     H_    0.424400 0.101652 0.897855 0.155745
H12   H     H_    0.263160 0.626612 0.697286 0.144933
H13   H     H_    0.542310 0.668360 0.873894 0.148803
H14   H     H_    0.117837 0.211810 0.582769 0.190121
H15   H     H_    0.652070 0.461244 0.708638 0.163188
H16   H     H_    0.740524 0.463983 0.703777 0.137297
H17   H     H_    0.876288 0.192441 0.509460 0.190881
H18   H     H_    0.961608 0.193866 0.518097 0.138070
H19   H     H_    0.032362 0.204284 0.579366 0.140026
H20   H     H_    0.351692 0.617251 0.691062 0.162091
H21   H     H_    0.420196 0.228591 0.695607 0.215230
H22   H     H_    0.348724 0.337131 0.704590 0.246863
H23   H     H_    0.126031 0.836219 0.456383 0.191528
H24   H     H_    0.370664 0.430889 0.845120 0.243990
H25   H     H_    0.354394 0.264449 0.864131 0.230337
H26   H     H_    0.967367 0.837179 0.492192 0.137415
H27   H     H_    0.654265 0.538683 0.282225 0.162349
H28   H     H_    0.881998 0.828243 0.483252 0.189204
H29   H     H_    0.742868 0.540846 0.279958 0.138175
H30   H     H_    0.040674 0.836094 0.451755 0.140099
H31   H     H_    0.437105 0.106390 0.394283 0.137089
N1    N     N_R   0.202603 0.526227 0.516106 -0.357375
N2    N     N_R   0.798600 0.505535 0.490550 -0.358409
N3    N     N_R   0.499540 0.498800 0.142780 -0.115473
N4    N     N_R   0.499520 0.498720 0.857170 -0.114626
N5    N     N_2   0.420314 0.306994 0.757801 -0.242038
O1    O     O_R   0.500000 0.316780 0.614690 -0.622269
O2    O     O_R   0.571250 0.499990 0.614680 -0.632982
O3    O     O_R   0.571240 0.499970 0.385350 -0.611002
O4    O     O_2   0.200753 0.308928 0.562020 -0.558799
O5    O     O_2   0.795431 0.283987 0.500504 -0.554021
O6    O     O_2   0.206647 0.744176 0.473674 -0.555805
O7    O     O_2   0.799421 0.726931 0.479527 -0.554598
O8    O     O_R   0.500000 0.316750 0.385360 -0.624348
O9    O     O_R   0.428760 0.500030 0.614650 -0.581489
O10   O     O_R   0.428750 0.500010 0.385320 -0.641721
O11   O     O_R   0.500000 0.683250 0.614640 -0.623379
O12   O     O_R   0.500000 0.683220 0.385310 -0.613198
Zn1   Zn    Zn3+2 0.500000 0.500020 0.653130 0.951009
Zn2   Zn    Zn3+2 0.500000 0.499980 0.346870 0.945976

loop_
_geom_bond_atom_site_label_1
_geom_bond_atom_site_label_2
_ccdc_geom_bond_type
C10   C27   A    
C28   O2    A    
C8    C13   A    
C22   C29   A    
C35   C36   A    
C40   O4    S    
C29   H30   S    
C33   H6    S    
C7    C8    A    
C39   C41   A    
C54   H1    S    
C12   C23   A    
N4    Zn1   S    
C26   C27   A    
C36   C37   A    
C53   H20   S    
C1    O1    A    
C30   C31   A    
C31   C32   A    
C18   C19   A    
C50   H13   S    
C19   N2    S    
C16   O12   A    
C51   N1    A    
O2    Zn1   S    
C11   N2    A    
C46   N5    S    
C20   C24   A    
C45   C56   A    
C8    C9    A    
C34   C57   A    
C44   H11   S    
C51   C57   A    
C55   H22   S    
C9    C10   A    
C1    O8    A    
C1    C37   S    
O1    Zn1   S    
C43   H10   S    
O3    Zn2   S    
C21   C22   A    
C42   H9    S    
O12   Zn2   S    
C31   H3    S    
C2    C6    A    
C25   C57   A    
C44   C46   A    
C25   C29   A    
C40   C45   A    
C48   N3    A    
C2    C20   A    
C17   H27   S    
C32   H5    S    
C55   N5    S    
C12   H4    S    
C50   N4    A    
C6    H18   S    
C21   C34   A    
C18   H29   S    
C43   C44   A    
C5    C9    A    
C37   C38   A    
C47   C48   A    
C17   C18   A    
C34   C45   A    
C42   C48   A    
H21   N5    S    
C27   H28   S    
C6    C7    A    
C17   C59   A    
C24   H19   S    
C13   N2    A    
C25   H23   S    
C39   H7    S    
C23   N1    S    
C2    C5    A    
C24   C56   A    
C42   C43   A    
C55   H24   S    
O9    Zn1   S    
C52   C53   A    
C54   C58   A    
C28   C59   S    
C28   O3    A    
O10   Zn2   S    
C46   C47   A    
C56   H14   S    
C49   H8    S    
C15   C59   A    
C14   C19   A    
C3    C26   A    
C3    C5    A    
C53   C58   A    
C7    H17   S    
C16   O11   A    
C51   O6    S    
C4    O10   A    
C38   H31   S    
C30   C36   A    
O8    Zn2   S    
C14   H16   S    
C13   O5    S    
C52   H12   S    
C32   C33   A    
C23   C52   A    
C38   C39   A    
O11   Zn1   S    
C26   H26   S    
C4    O9    A    
C33   C35   A    
C47   N4    A    
C11   O7    S    
C40   N1    A    
C35   C41   A    
C10   C11   A    
C15   H15   S    
C20   C21   A    
C49   C50   A    
C30   H2    S    
C4    C58   S    
C14   C15   A    
C3    C22   A    
C49   N3    A    
C55   H25   S    
C16   C41   S    
C12   C54   A    
N3    Zn2   S    
