data_mof_unit_pretest_1251.cif
_audit_creation_date              2012-12-10T16:54:55-0500
_audit_creation_method            fapswitch 2.2
_symmetry_space_group_name_H-M    P1
_symmetry_Int_Tables_number       1
_space_group_crystal_system       triclinic
_cell_length_a                    7.772966
_cell_length_b                    8.578754
_cell_length_c                    15.717624
_cell_angle_alpha                 90.846753
_cell_angle_beta                  85.845033
_cell_angle_gamma                 93.630422
_cell_volume                      1043.18125811

loop_
_atom_site_label
_atom_site_type_symbol
_atom_type_description
_atom_site_fract_x
_atom_site_fract_y
_atom_site_fract_z
_atom_type_partial_charge
C1    C     C_R   0.545764 0.794722 0.497814 0.964566
C2    C     C_2   0.430154 0.041802 0.503441 -0.373008
C3    C     C_R   0.502006 0.500054 0.661606 0.905967
C4    C     C_R   0.454236 0.205278 0.502191 0.959935
C5    C     C_R   0.497992 0.499966 0.338396 0.901501
C6    C     C_3   0.350506 0.594412 0.955635 0.503405
C7    C     C_3   0.675216 0.576733 0.946857 -0.358085
C8    C     C_3   0.670868 0.577330 0.045168 -0.396389
C9    C     C_1   0.493921 0.500568 0.249620 -0.180310
C10   C     C_3   0.503014 0.501160 0.917345 0.224423
C11   C     C_3   0.347300 0.594809 0.054042 -0.441316
C12   C     C_3   0.496333 0.501093 0.082729 0.273569
C13   C     C_3   0.474772 0.331324 0.048543 -0.402681
C14   C     C_3   0.478855 0.331329 0.950238 -0.495170
C15   C     C_1   0.493508 0.500910 0.174263 -0.088962
C16   C     C_1   0.506309 0.500438 0.825760 -0.049194
C17   C     C_1   0.506105 0.500058 0.750389 -0.151966
C18   C     C_2   0.569847 0.958199 0.496572 -0.375514
F1    F     F_    0.365932 0.746757 0.926273 -0.674206
H1    H     H_    0.226142 0.539281 0.935512 0.064496
H2    H     H_    0.356194 0.274110 0.929294 0.186389
H3    H     H_    0.586490 0.261796 0.923267 0.209886
H4    H     H_    0.350079 0.274299 0.075044 0.180287
H5    H     H_    0.360207 0.717002 0.078727 0.207216
H6    H     H_    0.701796 0.009230 0.490021 0.180660
H7    H     H_    0.780020 0.512359 0.065745 0.171059
H8    H     H_    0.220663 0.542143 0.080871 0.128965
H9    H     H_    0.580411 0.261755 0.068995 0.188956
H10   H     H_    0.298205 0.990772 0.509993 0.181696
H11   H     H_    0.013410 0.381931 0.436573 0.191883
H12   H     H_    0.986590 0.618068 0.563427 0.195924
H13   H     H_    0.785643 0.510431 0.920069 0.164758
H14   H     H_    0.696781 0.698577 0.923214 0.215604
H15   H     H_    0.688794 0.699681 0.069073 0.181938
N1    N     N_2   0.950340 0.457950 0.477370 -0.173397
N2    N     N_2   0.049660 0.542050 0.522630 -0.171782
O1    O     O_R   0.389240 0.738570 0.505550 -0.611721
O2    O     O_R   0.678400 0.711630 0.491050 -0.630776
O3    O     O_R   0.355360 0.513470 0.630110 -0.606702
O4    O     O_R   0.644510 0.486530 0.615610 -0.622415
O5    O     O_R   0.321600 0.288370 0.508950 -0.630770
O6    O     O_R   0.610760 0.261430 0.494450 -0.613206
O7    O     O_R   0.355490 0.513470 0.384390 -0.622640
O8    O     O_R   0.644640 0.486530 0.369890 -0.613423
Zn1   Zn    Zn3+2 0.306930 0.517990 0.509680 0.952499
Zn2   Zn    Zn3+2 0.693070 0.482010 0.490320 0.948052

loop_
_geom_bond_atom_site_label_1
_geom_bond_atom_site_label_2
_ccdc_geom_bond_type
C6    C10   S    
C7    C10   S    
C2    C4    S    
C11   C12   S    
C13   H9    S    
C5    C9    S    
C1    O1    A    
C8    C12   S    
C2    C18   D    
C6    H1    S    
N1    N2    D    
C12   C15   S    
C11   H8    S    
O3    Zn1   S    
C14   H3    S    
C5    O7    A    
C3    O3    A    
N2    Zn1   S    
C8    H15   S    
C13   C14   S    
O4    Zn2   S    
C6    F1    S    
O7    Zn1   S    
C1    C18   S    
C18   H6    S    
C4    O6    A    
C1    O2    A    
C2    H10   S    
H11   N1    S    
C14   H2    S    
C5    O8    A    
O8    Zn2   S    
C3    O4    A    
C3    C17   S    
C10   C14   S    
O2    Zn2   S    
C4    O5    A    
C7    H14   S    
O1    Zn1   S    
C11   H5    S    
C7    C8    S    
C8    H7    S    
C12   C13   S    
C13   H4    S    
O6    Zn2   S    
C6    C11   S    
O5    Zn1   S    
H12   N2    S    
C10   C16   S    
C7    H13   S    
C9    C15   T    
N1    Zn2   S    
C16   C17   T    
