data_mof_unit_pretest_26.cif
_audit_creation_date              2012-12-11T15:27:40-0500
_audit_creation_method            fapswitch 2.2
_symmetry_space_group_name_H-M    P1
_symmetry_Int_Tables_number       1
_space_group_crystal_system       triclinic
_cell_length_a                    23.199857
_cell_length_b                    7.302259
_cell_length_c                    15.106755
_cell_angle_alpha                 90.091508
_cell_angle_beta                  108.089272
_cell_angle_gamma                 89.898098
_cell_volume                      2432.75658298

loop_
_atom_site_label
_atom_site_type_symbol
_atom_type_description
_atom_site_fract_x
_atom_site_fract_y
_atom_site_fract_z
_atom_type_partial_charge
O1    O     O_R   0.711000 0.648610 0.341170 -0.529063
O2    O     O_R   0.289000 0.351390 0.658830 -0.529065
O3    O     O_R   0.789000 0.148610 0.158830 -0.535386
O4    O     O_R   0.211000 0.851390 0.841170 -0.535380
O5    O     O_R   0.829650 0.322030 0.336650 -0.538869
O6    O     O_R   0.170350 0.677970 0.663350 -0.538865
O7    O     O_R   0.670350 0.822030 0.163350 -0.532930
O8    O     O_R   0.329650 0.177970 0.836650 -0.532929
C1    C     C_R   0.854285 0.485751 0.356734 0.725328
C2    C     C_R   0.145715 0.514249 0.643266 0.725344
C3    C     C_R   0.645717 0.985843 0.143258 0.724966
C4    C     C_R   0.354283 0.014156 0.856742 0.724960
O9    O     O_R   0.713950 0.319280 0.352070 -0.537569
O10   O     O_R   0.286050 0.680720 0.647930 -0.537570
O11   O     O_R   0.786050 0.819280 0.147930 -0.529294
O12   O     O_R   0.213950 0.180720 0.852070 -0.529292
O13   O     O_R   0.672470 0.142870 0.174360 -0.535603
O14   O     O_R   0.327530 0.857130 0.825640 -0.535604
O15   O     O_R   0.827530 0.642870 0.325640 -0.531782
O16   O     O_R   0.172470 0.357130 0.674360 -0.531791
C5    C     C_R   0.701765 0.487799 0.376031 0.709302
C6    C     C_R   0.298236 0.512200 0.623969 0.709304
C7    C     C_R   0.798253 0.987335 0.123978 0.707496
C8    C     C_R   0.201748 0.012665 0.876023 0.707482
O17   O     O_3   0.736530 0.478650 0.191680 -0.377776
O18   O     O_3   0.263470 0.521350 0.808320 -0.377771
O19   O     O_3   0.763470 0.978650 0.308320 -0.380254
O20   O     O_3   0.236530 0.021350 0.691680 -0.380258
V1    V     V_3+5 0.752500 0.206170 0.260820 1.496667
V2    V     V_3+5 0.247500 0.793830 0.739180 1.496675
V3    V     V_3+5 0.747500 0.706170 0.239180 1.520639
V4    V     V_3+5 0.252500 0.293830 0.760820 1.520641
C9    C     C_R   0.827719 0.995102 0.051671 -0.102760
C10   C     C_R   0.172294 0.004899 0.948345 -0.102731
C11   C     C_R   0.672291 0.498207 0.448287 -0.102872
C12   C     C_R   0.327711 0.501793 0.551715 -0.102872
C13   C     C_R   0.822034 0.032073 0.890294 0.348187
C14   C     C_R   0.178004 0.967933 0.109732 0.348200
C15   C     C_R   0.677888 0.532593 0.609847 0.348283
C16   C     C_R   0.322119 0.467404 0.390157 0.348301
C17   C     C_R   0.793346 0.009459 0.958183 -0.156698
C18   C     C_R   0.206680 0.990495 0.041826 -0.156694
C19   C     C_R   0.706276 0.529346 0.540844 -0.161023
C20   C     C_R   0.293728 0.470641 0.459159 -0.161029
C21   C     C_R   0.890811 0.990659 0.077052 -0.126502
C22   C     C_R   0.109202 0.009424 0.922986 -0.126477
C23   C     C_R   0.609404 0.483065 0.423450 -0.131352
C24   C     C_R   0.390597 0.516955 0.576555 -0.131352
C25   C     C_R   0.921050 0.992146 0.009379 0.067952
C26   C     C_R   0.078979 0.007956 0.990678 0.067978
C27   C     C_R   0.578695 0.508676 0.489620 0.063019
C28   C     C_R   0.421309 0.491349 0.510388 0.063012
C29   C     C_R   0.886145 0.032224 0.916220 -0.000129
C30   C     C_R   0.113892 0.967861 0.083829 -0.000136
C31   C     C_R   0.614113 0.514192 0.584918 -0.002334
C32   C     C_R   0.385893 0.485826 0.415089 -0.002328
C33   C     C_R   0.985288 0.971550 0.032885 -0.005544
C34   C     C_R   0.014745 0.028604 0.967193 -0.005544
C35   C     C_R   0.514065 0.513960 0.464555 -0.010857
C36   C     C_R   0.485939 0.486077 0.535455 -0.010856
C37   C     C_R   0.978635 0.105663 0.881235 0.244242
C38   C     C_R   0.021405 0.894564 0.118856 0.244294
C39   C     C_R   0.523785 0.451682 0.628123 0.243105
C40   C     C_R   0.476220 0.548366 0.371888 0.243098
C41   C     C_R   0.915826 0.089530 0.853715 -0.126985
C42   C     C_R   0.084216 0.910661 0.146354 -0.126970
C43   C     C_R   0.585835 0.483859 0.652713 -0.123413
C44   C     C_R   0.414171 0.516179 0.347296 -0.123396
H1    H     H_    0.890207 0.141602 0.785902 0.204356
H2    H     H_    0.109840 0.858660 0.214174 0.204365
H3    H     H_    0.612582 0.465336 0.724809 0.205231
H4    H     H_    0.387424 0.534711 0.275199 0.205234
H5    H     H_    0.084385 0.003081 0.849717 0.159766
H6    H     H_    0.915613 0.997085 0.150321 0.159812
H7    H     H_    0.414536 0.556955 0.647155 0.162422
H8    H     H_    0.585462 0.443078 0.352849 0.162417
H9    H     H_    0.255747 0.988957 0.061465 0.151512
H10   H     H_    0.744281 0.010942 0.938527 0.151523
H11   H     H_    0.244939 0.455701 0.440224 0.150159
H12   H     H_    0.755066 0.544270 0.559777 0.150159
C45   C     C_1   0.416778 0.006865 0.918691 -0.130595
C46   C     C_1   0.583222 0.993135 0.081309 -0.130596
C47   C     C_1   0.083220 0.507071 0.581313 -0.135535
C48   C     C_1   0.916780 0.492929 0.418687 -0.135524
C49   C     C_1   0.469151 0.002348 0.969939 0.070558
C50   C     C_1   0.530849 0.997652 0.030061 0.070558
C51   C     C_1   0.030849 0.502445 0.530063 0.061022
C52   C     C_1   0.969151 0.497555 0.469937 0.061031
Br1   Br    Br    0.771148 0.065232 0.763957 -0.454863
Br2   Br    Br    0.228908 0.934741 0.236058 -0.454866
Br3   Br    Br    0.728676 0.562502 0.736505 -0.452766
Br4   Br    Br    0.271334 0.437475 0.263499 -0.452760
Br5   Br    Br    0.007960 0.275031 0.806986 -0.554197
Br6   Br    Br    0.992097 0.725418 0.193212 -0.554260
Br7   Br    Br    0.499228 0.318076 0.720672 -0.557375
Br8   Br    Br    0.500779 0.682005 0.279351 -0.557362

loop_
_geom_bond_atom_site_label_1
_geom_bond_atom_site_label_2
_ccdc_geom_bond_type
O17   V3    S    
C47   C51   T    
C51   C52   S    
C25   C29   A    
O1    C5    A    
O19   V1    S    
C9    C21   A    
O3    C7    A    
C10   C18   A    
O15   V3    S    
C25   C33   A    
C33   C38   A    
C49   C50   S    
O18   V4    S    
C35   C40   A    
C26   C30   A    
C36   C39   A    
C40   C44   A    
O9    V1    S    
C23   H8    S    
C14   C18   A    
O4    C8    A    
C37   Br5   S    
C39   Br7   S    
C2    C47   S    
O1    V3    S    
O13   V1    S    
O2    V4    S    
O3    V1    S    
C28   C36   A    
C1    O15   A    
C15   C31   A    
C2    O16   A    
C7    C9    S    
O2    C6    A    
C10   C22   A    
C11   C19   A    
C16   C20   A    
C43   H3    S    
C44   H4    S    
C13   C29   A    
C34   C37   A    
O11   C7    A    
C11   C23   A    
C35   C36   A    
O12   C8    A    
C24   H7    S    
O10   V2    S    
C15   Br3   S    
O5    V1    S    
C3    C46   S    
C15   C19   A    
C39   C43   A    
O7    V3    S    
C38   C42   A    
O8    V4    S    
C40   Br8   S    
C17   H10   S    
C23   C27   A    
C16   C32   A    
C19   H12   S    
C32   C44   A    
C8    C10   S    
C21   H6    S    
C26   C34   A    
O7    C3    A    
O5    C1    A    
C14   C30   A    
C21   C25   A    
O8    C4    A    
O9    C5    A    
C16   Br4   S    
O14   V2    S    
O6    V2    S    
C38   Br6   S    
C12   C20   A    
C27   C35   A    
C29   C41   A    
O16   V4    S    
C14   Br2   S    
C3    O13   A    
C20   H11   S    
C48   C52   T    
O6    C2    A    
C31   C43   A    
O11   V3    S    
C30   C42   A    
O12   V4    S    
C6    C12   S    
C22   C26   A    
C13   Br1   S    
C9    C17   A    
O10   C6    A    
O20   V2    S    
C5    C11   S    
C46   C50   T    
C33   C34   A    
C42   H2    S    
C41   H1    S    
C4    C45   S    
C12   C24   A    
C27   C31   A    
C13   C17   A    
C45   C49   T    
C1    C48   S    
C37   C41   A    
C24   C28   A    
C18   H9    S    
C4    O14   A    
C22   H5    S    
O4    V2    S    
C28   C32   A    
