data_mof_unit_pretest_1243.cif
_audit_creation_date              2012-12-11T15:23:59-0500
_audit_creation_method            fapswitch 2.2
_symmetry_space_group_name_H-M    P1
_symmetry_Int_Tables_number       1
_space_group_crystal_system       triclinic
_cell_length_a                    17.480962
_cell_length_b                    24.696468
_cell_length_c                    15.160382
_cell_angle_alpha                 90.276317
_cell_angle_beta                  126.296937
_cell_angle_gamma                 89.94388
_cell_volume                      5274.94024035

loop_
_atom_site_label
_atom_site_type_symbol
_atom_type_description
_atom_site_fract_x
_atom_site_fract_y
_atom_site_fract_z
_atom_type_partial_charge
Br1   Br    Br    0.212765 0.349678 0.761872 -0.619691
Br2   Br    Br    0.343640 0.474604 0.276739 -0.437845
Br3   Br    Br    0.830044 0.975597 0.486090 -0.538921
Br4   Br    Br    0.843426 0.975610 0.276552 -0.437576
Br5   Br    Br    0.721639 0.318545 0.233053 -0.646187
Br6   Br    Br    0.712779 0.849665 0.761873 -0.619780
Br7   Br    Br    0.221625 0.818550 0.233068 -0.646284
Br8   Br    Br    0.097315 0.615754 0.887642 -0.476894
Br9   Br    Br    0.756611 0.652508 0.906349 -0.555768
Br10  Br    Br    0.597270 0.115779 0.887558 -0.476677
Br11  Br    Br    0.256569 0.152516 0.906344 -0.555481
Br12  Br    Br    0.330251 0.474650 0.486231 -0.539297
C1    C     C_R   0.311727 0.373582 0.907710 0.237408
C2    C     C_R   0.528617 0.500179 0.705627 0.095528
C3    C     C_3   0.851130 0.232330 0.843421 -0.356735
C4    C     C_3   0.893340 0.266800 0.798700 -0.908788
C5    C     C_3   0.139208 0.174429 0.221295 0.151051
C6    C     C_3   0.173913 0.216457 0.311814 -0.263383
C7    C     C_3   0.105658 0.220843 0.343229 -0.993837
C8    C     C_3   0.515517 0.321667 0.239248 0.144779
C9    C     C_3   0.485623 0.263915 0.193019 -0.328124
C10   C     C_3   0.563312 0.222703 0.265489 -0.839168
C11   C     C_3   0.420689 0.330344 0.742552 0.144477
C12   C     C_3   0.388386 0.271184 0.727696 -0.267368
C13   C     C_R   0.048904 0.001228 0.354851 0.060151
C14   C     C_3   0.290029 0.262361 0.621100 -0.895692
C15   C     C_3   0.015506 0.821680 0.239279 0.144590
C16   C     C_3   0.985615 0.763928 0.193056 -0.327877
C17   C     C_3   0.063299 0.722716 0.265545 -0.839576
C18   C     C_3   0.920699 0.830333 0.742530 0.144395
C19   C     C_3   0.888429 0.771171 0.727787 -0.267334
C20   C     C_3   0.790076 0.762307 0.621207 -0.895898
C21   C     C_R   0.028706 0.000183 0.705703 0.095385
C22   C     C_R   0.205623 0.500065 0.628895 0.082054
C23   C     C_R   0.825915 0.500983 0.286532 0.110234
C24   C     C_R   0.705597 0.000060 0.628907 0.082049
C25   C     C_R   0.325882 0.000985 0.286285 0.110063
C26   C     C_2   0.981132 0.460165 0.363256 -0.099675
C27   C     C_2   0.081731 0.457045 0.456798 -0.042677
C28   C     C_2   0.481106 0.960104 0.363227 -0.099443
C29   C     C_R   0.655543 0.350581 0.090519 0.204546
C30   C     C_2   0.581693 0.957026 0.456840 -0.043216
C31   C     C_2   0.928623 0.503413 0.349538 -0.162746
C32   C     C_2   0.132485 0.501466 0.511095 -0.111624
C33   C     C_2   0.428581 0.003440 0.349074 -0.162311
C34   C     C_2   0.632428 0.001455 0.511110 -0.110914
C35   C     C_R   0.169048 0.681040 0.953984 0.366647
C36   C     C_R   0.734401 0.718388 0.956343 0.342317
C37   C     C_R   0.669036 0.181049 0.953951 0.366772
C38   C     C_R   0.234364 0.218399 0.956335 0.342309
C39   C     C_R   0.623966 0.226742 0.955134 -0.208381
C40   C     C_R   0.811730 0.873578 0.907709 0.237506
C41   C     C_R   0.275482 0.264811 0.954362 -0.238537
C42   C     C_R   0.123963 0.726722 0.955179 -0.208473
C43   C     C_R   0.775510 0.764803 0.954369 -0.238526
C44   C     C_R   0.676413 0.274263 0.002046 0.192772
C45   C     C_R   0.264440 0.313086 0.994100 0.147716
C46   C     C_R   0.176385 0.774254 0.002050 0.192852
C47   C     C_R   0.764454 0.813076 0.994100 0.147833
C48   C     C_R   0.773042 0.277051 0.050767 -0.093328
C49   C     C_R   0.213548 0.315634 0.037911 -0.073490
C50   C     C_R   0.273005 0.777063 0.050729 -0.093387
C51   C     C_R   0.155513 0.850571 0.090518 0.204510
C52   C     C_R   0.713557 0.815619 0.037905 -0.073795
C53   C     C_R   0.318083 0.731970 0.050712 -0.268568
C54   C     C_R   0.671422 0.768842 0.039885 -0.201678
C55   C     C_R   0.818104 0.231949 0.050755 -0.268588
C56   C     C_R   0.171402 0.268861 0.039887 -0.201641
C57   C     C_R   0.402184 0.624118 0.089885 -0.248075
C58   C     C_R   0.570274 0.645284 0.909180 -0.194734
C59   C     C_R   0.902172 0.124100 0.089886 -0.247824
C60   C     C_R   0.070247 0.145295 0.909178 -0.194791
C61   C     C_R   0.266183 0.684378 0.002022 0.065774
C62   C     C_R   0.315933 0.640456 0.997935 0.018216
C63   C     C_R   0.682323 0.720862 0.999019 0.045304
C64   C     C_R   0.766182 0.184366 0.002033 0.065750
C65   C     C_R   0.182286 0.220879 0.999011 0.045241
C66   C     C_R   0.450403 0.488846 0.510852 0.262207
C67   C     C_R   0.455689 0.489225 0.423395 0.311955
C68   C     C_R   0.950361 0.989298 0.510817 0.262188
C69   C     C_R   0.955658 0.989689 0.423364 0.311896
C70   C     C_R   0.543136 0.501419 0.443602 -0.056471
C71   C     C_R   0.533093 0.500287 0.615769 -0.060445
C72   C     C_R   0.043297 0.001437 0.443711 -0.056446
C73   C     C_R   0.640180 0.672825 0.000744 -0.010488
C74   C     C_R   0.033216 0.000302 0.615864 -0.060442
C75   C     C_R   0.624066 0.514093 0.547368 -0.198691
C76   C     C_R   0.618989 0.513483 0.634477 -0.145647
C77   C     C_R   0.124447 0.013621 0.547646 -0.198788
C78   C     C_R   0.119348 0.013015 0.634745 -0.145348
C79   C     C_R   0.543370 0.455540 0.300242 0.015559
C80   C     C_R   0.508633 0.454403 0.740017 -0.096055
C81   C     C_R   0.043425 0.955545 0.300281 0.015412
C82   C     C_R   0.008624 0.954406 0.739997 -0.096405
C83   C     C_R   0.248198 0.544589 0.694738 -0.058475
C84   C     C_R   0.815919 0.140438 0.997937 0.018378
C85   C     C_R   0.768756 0.545655 0.257514 -0.146866
C86   C     C_R   0.748186 0.044588 0.694743 -0.058190
C87   C     C_R   0.268736 0.045653 0.257357 -0.146837
C88   C     C_R   0.538604 0.545844 0.296331 -0.087837
C89   C     C_R   0.506678 0.545530 0.739074 -0.036534
C90   C     C_R   0.038677 0.045845 0.296371 -0.087229
C91   C     C_R   0.006742 0.045530 0.739137 -0.035775
C92   C     C_R   0.252924 0.455426 0.691862 0.014006
C93   C     C_R   0.769401 0.455122 0.254593 -0.082146
C94   C     C_R   0.752914 0.955423 0.691870 0.013801
C95   C     C_R   0.140136 0.172845 0.000737 -0.010471
C96   C     C_R   0.269380 0.955123 0.254454 -0.082078
C97   C     C_R   0.313207 0.628337 0.907012 0.582215
C98   C     C_R   0.659301 0.647416 0.091758 0.518977
C99   C     C_R   0.813199 0.128327 0.907014 0.582064
C100  C     C_R   0.159274 0.147428 0.091751 0.518887
C101  C     C_R   0.403055 0.372085 0.089170 0.515014
C102  C     C_R   0.563301 0.349798 0.909384 0.478769
C103  C     C_R   0.903055 0.872084 0.089168 0.514796
C104  C     C_R   0.063274 0.849788 0.909386 0.478841
C105  C     C_R   0.315003 0.358776 0.997130 -0.108103
C106  C     C_R   0.548750 0.501221 0.354754 0.060435
C107  C     C_R   0.632143 0.322424 0.000126 -0.147366
C108  C     C_R   0.815006 0.858770 0.997128 -0.108197
C109  C     C_R   0.132094 0.822406 0.000128 -0.147428
C110  C     C_3   0.305210 0.680328 0.775540 0.158712
C111  C     C_3   0.351146 0.732334 0.843404 -0.356654
C112  C     C_3   0.393370 0.766794 0.798687 -0.908958
C113  C     C_3   0.639224 0.674433 0.221286 0.151065
C114  C     C_3   0.673944 0.716453 0.311820 -0.263527
C115  C     C_3   0.605673 0.720858 0.343209 -0.993927
C116  C     C_3   0.805192 0.180327 0.775546 0.158773
H1    H     H_    0.960595 0.540809 0.394457 0.136684
H2    H     H_    0.207275 0.353168 0.070433 0.169571
H3    H     H_    0.792262 0.770100 0.550653 0.255448
H4    H     H_    0.312689 0.814400 0.086468 0.138586
H5    H     H_    0.707272 0.853152 0.070419 0.169324
H6    H     H_    0.392808 0.734585 0.085404 0.131676
H7    H     H_    0.630624 0.769828 0.072619 0.150200
H8    H     H_    0.892834 0.234551 0.085469 0.131673
H9    H     H_    0.130607 0.269851 0.072626 0.150234
H10   H     H_    0.690516 0.523914 0.560445 0.161950
H11   H     H_    0.681431 0.522983 0.716038 0.178380
H12   H     H_    0.191072 0.023069 0.560851 0.161999
H13   H     H_    0.110384 0.541142 0.473666 0.131832
H14   H     H_    0.181948 0.022146 0.716426 0.178029
H15   H     H_    0.430510 0.632743 0.173913 0.160137
H16   H     H_    0.531209 0.658509 0.825244 0.138607
H17   H     H_    0.930494 0.132715 0.173916 0.160200
H18   H     H_    0.031174 0.158520 0.825241 0.138627
H19   H     H_    0.562264 0.415592 0.334355 0.117063
H20   H     H_    0.510807 0.413609 0.717063 0.168644
H21   H     H_    0.062321 0.915596 0.334390 0.116957
H22   H     H_    0.010762 0.913614 0.717001 0.168490
H23   H     H_    0.238864 0.585445 0.665295 0.116036
H24   H     H_    0.460529 0.040945 0.393591 0.136469
H25   H     H_    0.791225 0.587376 0.272855 0.161628
H26   H     H_    0.738843 0.085443 0.665295 0.116091
H27   H     H_    0.291201 0.087375 0.272624 0.161615
H28   H     H_    0.548597 0.587583 0.322692 0.094724
H29   H     H_    0.505704 0.586987 0.716189 0.117629
H30   H     H_    0.048676 0.087586 0.322724 0.094693
H31   H     H_    0.005806 0.086989 0.716287 0.117704
H32   H     H_    0.253130 0.416866 0.658298 0.122713
H33   H     H_    0.794230 0.414424 0.267590 0.161235
H34   H     H_    0.753119 0.916865 0.658303 0.122579
H35   H     H_    0.610353 0.041139 0.473684 0.131836
H36   H     H_    0.294183 0.914425 0.267366 0.161112
H37   H     H_    0.947114 0.422847 0.318801 0.137325
H38   H     H_    0.106989 0.417202 0.492470 0.142041
H39   H     H_    0.447097 0.922695 0.319165 0.137204
H40   H     H_    0.606948 0.917199 0.492596 0.141945
H41   H     H_    0.254357 0.691727 0.688123 0.147472
H42   H     H_    0.359289 0.654023 0.780346 0.080552
H43   H     H_    0.296858 0.756494 0.842198 0.233744
H44   H     H_    0.408809 0.721741 0.929570 0.179015
H45   H     H_    0.448275 0.743715 0.799520 0.262697
H46   H     H_    0.549392 0.225286 0.920777 0.144344
H47   H     H_    0.427043 0.803498 0.850588 0.272343
H48   H     H_    0.336940 0.779645 0.713642 0.269034
H49   H     H_    0.635434 0.634335 0.251451 0.117413
H50   H     H_    0.567067 0.687202 0.150055 0.088529
H51   H     H_    0.745498 0.704993 0.385056 0.214554
H52   H     H_    0.679322 0.756546 0.282807 0.214397
H53   H     H_    0.532286 0.728492 0.269907 0.265550
H54   H     H_    0.626778 0.755164 0.400792 0.287194
H55   H     H_    0.606806 0.682980 0.383109 0.268521
H56   H     H_    0.754334 0.191731 0.688132 0.147521
H57   H     H_    0.318692 0.263017 0.924716 0.168545
H58   H     H_    0.859268 0.154026 0.780339 0.080574
H59   H     H_    0.796846 0.256485 0.842233 0.233760
H60   H     H_    0.908801 0.221733 0.929581 0.179020
H61   H     H_    0.948234 0.243725 0.799503 0.262680
H62   H     H_    0.927024 0.303499 0.850616 0.272339
H63   H     H_    0.836899 0.279660 0.713664 0.269045
H64   H     H_    0.135445 0.134331 0.251476 0.117414
H65   H     H_    0.067040 0.187187 0.150066 0.088495
H66   H     H_    0.245482 0.205015 0.385045 0.214604
H67   H     H_    0.179251 0.256553 0.282776 0.214493
H68   H     H_    0.049399 0.725250 0.920862 0.144333
H69   H     H_    0.032253 0.228441 0.269931 0.265533
H70   H     H_    0.126727 0.255166 0.400768 0.287237
H71   H     H_    0.106854 0.182971 0.383187 0.268543
H72   H     H_    0.550704 0.320089 0.328785 0.152821
H73   H     H_    0.568532 0.338157 0.229027 0.140991
H74   H     H_    0.421068 0.252295 0.186572 0.233065
H75   H     H_    0.469631 0.262565 0.110434 0.194575
H76   H     H_    0.628922 0.232614 0.273298 0.299904
H77   H     H_    0.538929 0.181740 0.228370 0.274236
H78   H     H_    0.579313 0.222005 0.348143 0.246758
H79   H     H_    0.818724 0.763013 0.924727 0.168533
H80   H     H_    0.390553 0.348291 0.661057 0.159762
H81   H     H_    0.391344 0.354153 0.778427 0.104145
H82   H     H_    0.438712 0.244470 0.725931 0.236062
H83   H     H_    0.387766 0.259094 0.797799 0.197745
H84   H     H_    0.237368 0.289760 0.616091 0.295820
H85   H     H_    0.267311 0.219800 0.616194 0.281194
H86   H     H_    0.292215 0.270202 0.550557 0.255558
H87   H     H_    0.050674 0.820105 0.328813 0.152771
H88   H     H_    0.068535 0.838165 0.229077 0.141086
H89   H     H_    0.921051 0.752310 0.186592 0.233016
H90   H     H_    0.812746 0.314380 0.086534 0.138614
H91   H     H_    0.969640 0.762573 0.110479 0.194575
H92   H     H_    0.128923 0.732630 0.273385 0.299896
H93   H     H_    0.038928 0.681754 0.228422 0.274233
H94   H     H_    0.079273 0.722016 0.348185 0.246769
H95   H     H_    0.890572 0.848233 0.661003 0.159376
H96   H     H_    0.891326 0.854175 0.778334 0.104178
H97   H     H_    0.938769 0.744449 0.726068 0.236031
H98   H     H_    0.887817 0.759121 0.797912 0.197726
H99   H     H_    0.737403 0.789718 0.616137 0.295821
H100  H     H_    0.767374 0.719752 0.616386 0.281223
N1    N     N_R   0.395440 0.396300 0.944370 -0.122758
N2    N     N_R   0.474910 0.470990 0.794360 -0.054402
N3    N     N_R   0.025090 0.970990 0.205640 -0.046850
N4    N     N_R   0.974910 0.970990 0.794360 -0.054398
N5    N     N_R   0.320240 0.527820 0.794510 -0.056274
N6    N     N_R   0.679760 0.527820 0.205490 -0.056376
N7    N     N_R   0.820240 0.027820 0.794510 -0.056297
N8    N     N_R   0.179760 0.027820 0.205490 -0.056392
N9    N     N_R   0.524580 0.527810 0.205160 -0.043660
N10   N     N_R   0.475420 0.527810 0.794840 -0.052271
N11   N     N_R   0.024580 0.027810 0.205160 -0.043667
N12   N     N_R   0.604560 0.396300 0.055630 -0.098435
N13   N     N_R   0.975420 0.027810 0.794840 -0.052291
N14   N     N_R   0.320750 0.470990 0.794990 -0.049727
N15   N     N_R   0.679250 0.470990 0.205010 -0.044286
N16   N     N_R   0.820750 0.970990 0.794990 -0.049716
N17   N     N_R   0.179250 0.970990 0.205010 -0.044279
N18   N     N_R   0.393580 0.602500 0.942610 -0.120613
N19   N     N_R   0.606420 0.602500 0.057390 -0.106666
N20   N     N_R   0.893580 0.102500 0.942610 -0.120627
N21   N     N_R   0.106420 0.102500 0.057390 -0.106669
N22   N     N_R   0.451750 0.396300 0.057540 -0.130045
N23   N     N_R   0.895440 0.896300 0.944370 -0.122744
N24   N     N_R   0.548250 0.396300 0.942460 -0.121032
N25   N     N_R   0.951750 0.896300 0.057540 -0.129986
N26   N     N_R   0.048250 0.896300 0.942460 -0.121004
N27   N     N_R   0.104560 0.896300 0.055630 -0.098442
N28   N     N_R   0.449890 0.602500 0.055780 -0.093038
N29   N     N_R   0.550110 0.602500 0.944220 -0.073131
N30   N     N_R   0.949890 0.102500 0.055780 -0.093106
N31   N     N_R   0.050110 0.102500 0.944220 -0.073144
N32   N     N_R   0.525090 0.470990 0.205640 -0.046892
Ni1   Ni    Ni4+2 0.435420 0.434250 0.870220 0.212534
Ni2   Ni    Ni4+2 0.564580 0.434250 0.129780 0.227986
Ni3   Ni    Ni4+2 0.935420 0.934250 0.870220 0.212507
Ni4   Ni    Ni4+2 0.064580 0.934250 0.129780 0.227997
Ni5   Ni    Ni4+2 0.563400 0.564580 0.128670 0.199308
Ni6   Ni    Ni4+2 0.436600 0.564580 0.871330 0.204886
Ni7   Ni    Ni4+2 0.063400 0.064580 0.128670 0.199322
Ni8   Ni    Ni4+2 0.936600 0.064580 0.871330 0.204961
O1    O     O_3   0.252894 0.652598 0.805635 -0.657921
O2    O     O_3   0.703112 0.672011 0.193255 -0.677952
O3    O     O_3   0.752881 0.152591 0.805640 -0.657926
O4    O     O_3   0.203087 0.172020 0.193251 -0.677913
O5    O     O_3   0.436562 0.356459 0.193880 -0.648982
O6    O     O_3   0.520595 0.332410 0.802982 -0.672474
O7    O     O_3   0.936553 0.856479 0.193887 -0.649264
O8    O     O_3   0.020606 0.832419 0.802982 -0.672480

loop_
_geom_bond_atom_site_label_1
_geom_bond_atom_site_label_2
_ccdc_geom_bond_type
C98   N19   A    
C46   C50   A    
C36   C43   A    
N3    Ni4   S    
C86   H26   S    
C13   C81   A    
C47   C108  S    
N4    Ni3   S    
C43   C47   A    
C11   H80   S    
C6    H66   S    
C115  H55   S    
C61   C62   S    
C9    H75   S    
C81   H21   S    
C116  H56   S    
C99   O3    S    
N28   Ni5   S    
C21   C82   A    
C90   H30   S    
C62   C97   A    
C79   H19   S    
C82   N4    A    
C111  C112  S    
C112  H47   S    
C104  N26   A    
C59   N30   A    
C17   H93   S    
C96   H36   S    
C90   N11   A    
C16   H89   S    
C80   N2    A    
C116  H58   S    
N9    Ni5   S    
C16   C17   S    
C12   C14   S    
C8    H73   S    
C39   C44   A    
C26   C27   S    
C11   O6    S    
C92   N14   A    
C13   C90   A    
N23   N25   A    
C80   H20   S    
Br3   C68   S    
C70   C75   A    
N7    Ni8   S    
C53   C61   A    
C10   H78   S    
N3    N11   A    
C6    C7    S    
C30   C34   D    
C104  O8    S    
C41   H57   S    
C8    O5    S    
N22   Ni2   S    
C28   H39   S    
C97   O1    S    
Br2   C67   S    
C110  O1    S    
N19   N29   A    
N5    Ni6   S    
C83   H23   S    
C5    H65   S    
C66   C71   A    
C63   C73   S    
C17   H92   S    
C51   N27   A    
Br4   C69   S    
C20   H100  S    
C48   C55   A    
C99   N20   A    
C37   C39   A    
C87   H27   S    
C13   C72   S    
C68   C74   A    
C11   C12   S    
C20   H99   S    
C24   C34   S    
N31   Ni8   S    
N15   Ni2   S    
C85   H25   S    
C23   C31   S    
N1    N22   A    
C102  C107  A    
N6    N15   A    
C31   H1    S    
C81   N3    A    
C28   C30   S    
C71   C76   A    
C6    H67   S    
N2    Ni1   S    
C89   H29   S    
C9    C10   S    
C15   H87   S    
C116  O3    S    
C36   C63   A    
C100  O4    S    
C56   H9    S    
C28   C33   D    
C2    C71   S    
N21   N31   A    
C5    O4    S    
N30   Ni7   S    
N8    N17   A    
N12   Ni2   S    
C51   C109  A    
C12   H83   S    
C30   H40   S    
C15   H88   S    
C2    C80   A    
C58   N29   A    
C5    H64   S    
C57   C62   A    
C17   H94   S    
N7    N16   A    
C84   C99   A    
C3    C116  S    
C7    H69   S    
C38   C41   A    
C42   H68   S    
C104  C109  A    
C86   N7    A    
C24   C94   A    
N4    N13   A    
C50   H4    S    
N10   Ni6   S    
C22   C32   S    
C22   C83   A    
C35   C61   A    
C25   C96   A    
N32   Ni2   S    
C73   C98   A    
C74   C78   A    
C101  O5    S    
C98   O2    S    
C41   C45   A    
C66   C67   A    
C32   H13   S    
N6    Ni5   S    
C18   H96   S    
C59   C84   A    
C11   H81   S    
C110  H42   S    
C3    H59   S    
C96   N17   A    
C3    C4    S    
C22   C92   A    
C101  N22   A    
C44   C48   A    
C10   H77   S    
Br12  C66   S    
C52   C54   A    
C39   H46   S    
C21   C74   S    
C76   H11   S    
N26   N27   A    
C23   C93   A    
C4    H63   S    
C48   H90   S    
N8    Ni7   S    
C82   H22   S    
C19   C20   S    
C103  N25   A    
C60   C95   A    
C65   C95   S    
C77   H12   S    
C102  N24   A    
C8    C9    S    
N9    N32   A    
C14   H84   S    
C5    C6    S    
C92   H32   S    
N13   Ni8   S    
N11   Ni7   S    
C114  H51   S    
N16   Ni3   S    
C29   C107  A    
C114  H52   S    
Br7   C51   S    
C78   H14   S    
C4    H62   S    
C49   H2    S    
C60   N31   A    
C35   C42   A    
C101  C105  A    
C40   C108  A    
N25   Ni4   S    
C59   H17   S    
N24   Ni1   S    
C97   N18   A    
N12   N24   A    
C16   H91   S    
C34   H35   S    
C14   H85   S    
C113  H49   S    
C113  C114  S    
C115  H53   S    
C44   C107  S    
C93   H33   S    
C88   N9    A    
N2    N10   A    
Br1   C1    S    
C72   C77   A    
C70   C106  S    
C26   H37   S    
C25   C33   S    
C38   C65   A    
Br9   C36   S    
C25   C87   A    
C79   N32   A    
C43   H79   S    
C102  O6    S    
C15   O7    S    
C42   C46   A    
C56   C65   A    
C112  H45   S    
Br5   C29   S    
C52   H5    S    
C46   C109  S    
C12   H82   S    
C83   N5    A    
C50   C53   A    
C89   N10   A    
C21   C91   A    
C7    H70   S    
C58   H16   S    
C9    H74   S    
N29   Ni6   S    
C111  H44   S    
C94   N16   A    
C68   C69   A    
C2    C89   A    
C110  H41   S    
N26   Ni3   S    
C67   C70   A    
C1    C105  A    
C45   C49   A    
C27   C32   D    
N20   Ni8   S    
N1    Ni1   S    
C57   H15   S    
C100  N21   A    
C3    H60   S    
N20   N30   A    
C7    H71   S    
C10   H76   S    
C113  O2    S    
C14   H86   S    
C33   H24   S    
N21   Ni7   S    
C27   H38   S    
C19   H97   S    
C55   H8    S    
C77   C78   A    
Br8   C35   S    
C26   C31   D    
Br11  C38   S    
C23   C85   A    
C64   C84   S    
C87   N8    A    
N17   Ni4   S    
C49   C56   A    
C91   H31   S    
C18   C19   S    
N18   N28   A    
C114  C115  S    
C60   H18   S    
C54   C63   A    
C37   C64   A    
C91   N13   A    
N14   Ni1   S    
C58   C73   A    
C53   H6    S    
C57   N28   A    
C94   H34   S    
C88   H28   S    
C40   N23   A    
C79   C106  A    
C45   C105  S    
C4    H61   S    
C18   H95   S    
C1    N1    A    
C54   H7    S    
N19   Ni5   S    
C47   C52   A    
N5    N14   A    
C88   C106  A    
N27   Ni4   S    
C113  H50   S    
C75   C76   A    
C103  C108  A    
C19   H98   S    
C15   C16   S    
C110  C111  S    
C115  H54   S    
C8    H72   S    
C69   C72   A    
C95   C100  A    
C24   C86   A    
C55   C64   A    
C75   H10   S    
Br6   C40   S    
C112  H48   S    
N18   Ni6   S    
Br10  C37   S    
C93   N15   A    
C103  O7    S    
C111  H43   S    
C18   O8    S    
C20   H3    S    
C85   N6    A    
N23   Ni3   S    
C29   N12   A    
