data_mof_unit_pretest_374.cif
_audit_creation_date              2012-12-11T16:34:30-0500
_audit_creation_method            fapswitch 2.2
_symmetry_space_group_name_H-M    P1
_symmetry_Int_Tables_number       1
_space_group_crystal_system       triclinic
_cell_length_a                    8.236151
_cell_length_b                    17.398404
_cell_length_c                    27.011944
_cell_angle_alpha                 95.534224
_cell_angle_beta                  92.61806
_cell_angle_gamma                 83.887445
_cell_volume                      3828.30177596

loop_
_atom_site_label
_atom_site_type_symbol
_atom_type_description
_atom_site_fract_x
_atom_site_fract_y
_atom_site_fract_z
_atom_type_partial_charge
Ba1   Ba    Ba6+2 0.856110 0.463800 0.523550 1.645914
Ba2   Ba    Ba6+2 0.333710 0.536130 0.476450 1.643771
C1    C     C_3   0.680946 0.187815 0.657361 -0.371858
C2    C     C_R   0.903717 0.576840 0.176452 0.574236
C3    C     C_2   0.758061 0.551008 0.271913 -0.082961
C4    C     C_3   0.181872 0.290278 0.658172 0.282368
C5    C     C_3   0.739299 0.577572 0.326331 -0.048459
C6    C     C_1   0.984384 0.490020 0.343135 0.035017
C7    C     C_2   0.025542 0.486509 0.295498 -0.105274
C8    C     C_2   0.904375 0.516308 0.256135 0.189421
C9    C     C_R   0.022278 0.507538 0.101476 -0.082513
C10   C     C_R   0.066963 0.443059 0.128795 -0.037513
C11   C     C_R   0.151251 0.376700 0.104634 -0.055635
C12   C     C_3   0.674689 0.266513 0.636983 0.353481
C13   C     C_R   0.939294 0.574526 0.125607 -0.024759
C14   C     C_2   0.850129 0.530461 0.360290 -0.293977
C15   C     C_2   0.353755 0.482105 0.641340 -0.279432
C16   C     C_3   0.168541 0.269176 0.710978 -0.352939
C17   C     C_R   0.195949 0.438266 0.975823 0.035514
C18   C     C_R   0.039046 0.565985 0.970724 -0.037730
C19   C     C_R   0.137173 0.501499 0.947861 0.045602
C20   C     C_R   0.299206 0.376977 0.951929 -0.100733
C21   C     C_R   0.340267 0.377053 0.902434 -0.057913
C22   C     C_R   0.280282 0.438060 0.874120 -0.013802
C23   C     C_3   0.503818 0.658170 0.627348 0.306147
C24   C     C_R   0.177548 0.500403 0.896632 -0.134842
C25   C     C_R   0.115579 0.561569 0.867985 -0.097858
C26   C     C_R   0.163103 0.560423 0.817894 0.603007
C27   C     C_R   0.321156 0.437578 0.823697 0.576501
C28   C     C_3   0.201288 0.299892 0.416625 0.253464
C29   C     C_2   0.461459 0.484580 0.729405 -0.074782
C30   C     C_3   0.502922 0.489188 0.675473 -0.052831
C31   C     C_1   0.211288 0.514306 0.656895 0.038641
C32   C     C_2   0.172454 0.513426 0.704061 -0.105904
C33   C     C_2   0.303709 0.497360 0.743606 0.195061
C34   C     C_3   0.487842 0.688071 0.681925 -0.380705
C35   C     C_R   0.151044 0.438618 0.026539 0.017821
C36   C     C_R   0.060610 0.505230 0.050021 0.053533
C37   C     C_R   0.008188 0.569744 0.022613 0.038011
C38   C     C_R   0.192917 0.374511 0.054908 -0.101486
C39   C     C_R   0.894704 0.638858 0.098639 -0.059189
C40   C     C_3   0.219043 0.212174 0.403105 -0.239128
C41   C     C_R   0.972479 0.624360 0.940547 -0.145176
C42   C     C_R   0.006186 0.621889 0.890114 0.443625
C43   C     C_R   0.928015 0.636645 0.048481 -0.102843
C44   C     C_R   0.410286 0.278523 0.520618 -0.353842
C45   C     C_3   0.051104 0.702925 0.339220 0.340582
C46   C     C_R   0.551468 0.254392 0.494649 0.075429
C47   C     C_R   0.607652 0.175254 0.488266 -0.169644
C48   C     C_R   0.521453 0.120053 0.507571 -0.058545
C49   C     C_R   0.376148 0.144826 0.533366 0.362146
C50   C     C_R   0.318939 0.224579 0.538322 -0.033731
C51   C     C_R   0.587616 0.835112 0.505556 -0.110578
C52   C     C_3   0.994089 0.698335 0.579869 0.308942
C53   C     C_R   0.639651 0.755522 0.501143 0.040914
C54   C     C_R   0.874464 0.778731 0.456403 0.011208
C55   C     C_R   0.823490 0.858869 0.460419 -0.126249
C56   C     C_3   0.062420 0.725975 0.286719 -0.318561
C57   C     C_R   0.677881 0.887207 0.484617 -0.008177
C58   C     C_1   0.625752 0.969703 0.491568 0.011293
C59   C     C_1   0.578836 0.038203 0.498576 0.054376
C60   C     C_R   0.778037 0.727604 0.474762 -0.287233
C61   C     C_3   0.970501 0.785860 0.592369 -0.381886
C62   C     C_3   0.680606 0.370981 0.375435 0.298575
C63   C     C_3   0.683967 0.351405 0.319376 -0.339333
C64   C     C_2   0.054974 0.182128 0.394907 0.564760
C65   C     C_3   0.778325 0.662458 0.845693 0.242797
C66   C     C_3   0.343306 0.072237 0.596773 0.189988
C67   C     C_3   0.509078 0.743712 0.360637 0.356373
C68   C     C_3   0.465567 0.821725 0.339812 -0.349642
C69   C     C_R   0.025206 0.445915 0.179527 0.600631
H1    H     H_    0.789299 0.268652 0.617365 0.109284
H2    H     H_    0.587397 0.420994 0.383492 0.077994
H3    H     H_    0.788724 0.179470 0.683252 0.139263
H4    H     H_    0.781756 0.303774 0.310162 0.159430
H5    H     H_    0.707890 0.402939 0.300870 0.061574
H6    H     H_    0.564249 0.332940 0.305049 0.135830
H7    H     H_    0.568912 0.272397 0.610312 -0.041739
H8    H     H_    0.690994 0.141179 0.626212 0.066357
H9    H     H_    0.381866 0.643767 0.612426 0.030218
H10   H     H_    0.592547 0.605359 0.624365 0.034337
H11   H     H_    0.407647 0.743707 0.685243 0.140179
H12   H     H_    0.291753 0.198298 0.369100 0.139400
H13   H     H_    0.432748 0.645718 0.702417 0.072757
H14   H     H_    0.610091 0.697603 0.699063 0.120903
H15   H     H_    0.568109 0.183935 0.677579 0.111713
H16   H     H_    0.231131 0.310207 0.737283 0.138139
H17   H     H_    0.127177 0.646727 0.342321 0.084850
H18   H     H_    0.921498 0.696140 0.345474 -0.055817
H19   H     H_    0.182666 0.746699 0.281516 0.149639
H20   H     H_    0.049401 0.674777 0.259770 0.121464
H21   H     H_    0.964442 0.772817 0.279213 0.121631
H22   H     H_    0.644561 0.732407 0.361683 -0.066685
H23   H     H_    0.285656 0.182514 0.433542 -0.017745
H24   H     H_    0.465014 0.747799 0.399168 0.078160
H25   H     H_    0.527401 0.867104 0.362923 0.077394
H26   H     H_    0.331753 0.838118 0.340229 0.155279
H27   H     H_    0.126099 0.350972 0.656388 0.073583
H28   H     H_    0.506485 0.818788 0.301003 0.124462
H29   H     H_    0.148275 0.463789 0.285102 0.137343
H30   H     H_    0.186349 0.325715 0.124271 0.127080
H31   H     H_    0.560351 0.476719 0.757007 0.099461
H32   H     H_    0.420378 0.328525 0.886330 0.121154
H33   H     H_    0.353726 0.328319 0.970791 0.069852
H34   H     H_    0.875688 0.677190 0.567924 0.005183
H35   H     H_    0.255670 0.320672 0.039492 0.072984
H36   H     H_    0.662516 0.570391 0.245589 0.122432
H37   H     H_    0.832993 0.691868 0.116315 0.126437
H38   H     H_    0.888449 0.672399 0.954499 0.089019
H39   H     H_    0.313275 0.286119 0.649560 -0.021356
H40   H     H_    0.045982 0.525092 0.714387 0.127126
H41   H     H_    0.892646 0.689588 0.031380 0.075144
H42   H     H_    0.835514 0.544067 0.399994 0.082999
H43   H     H_    0.363469 0.451177 0.604515 0.072412
H44   H     H_    0.481172 0.856602 0.526868 0.086600
H45   H     H_    0.080278 0.685072 0.549158 0.072747
H46   H     H_    0.898819 0.898706 0.446375 0.091000
H47   H     H_    0.715401 0.156533 0.466974 0.101400
H48   H     H_    0.365764 0.339512 0.524343 0.085723
H49   H     H_    0.038012 0.272780 0.720538 0.135754
H50   H     H_    0.818813 0.666188 0.472518 0.060462
H51   H     H_    0.226706 0.209285 0.714565 0.114493
H52   H     H_    0.324038 0.318897 0.424910 0.013593
H53   H     H_    0.125704 0.314005 0.449970 0.037240
H54   H     H_    0.972897 0.185958 0.425503 0.006231
H55   H     H_    0.785525 0.606437 0.821761 0.017480
H56   H     H_    0.878226 0.800872 0.621403 0.135113
H57   H     H_    0.723047 0.708416 0.822545 0.077964
H58   H     H_    0.696110 0.660515 0.877024 -0.001779
H59   H     H_    0.262694 0.032671 0.610853 0.075852
H60   H     H_    0.342721 0.124550 0.623934 0.030507
H61   H     H_    0.468413 0.041215 0.594944 0.011347
H62   H     H_    0.928209 0.815317 0.558904 0.063839
H63   H     H_    0.088107 0.807206 0.606298 0.123743
H64   H     H_    0.801936 0.386528 0.389337 0.006735
N1    N     N_R   0.944850 0.512650 0.203312 -0.422095
N2    N     N_R   0.262471 0.498329 0.795924 -0.431575
O1    O     O_2   0.910880 0.540430 0.617910 -0.466549
O2    O     O_2   0.212439 0.773775 0.465826 -0.482621
O3    O     O_3   0.108517 0.760665 0.373350 -0.597100
O4    O     O_3   0.142880 0.540370 0.557740 -0.488894
O5    O     O_3   0.562610 0.408580 0.475460 -0.486760
O6    O     O_2   0.365880 0.685750 0.523280 -0.459808
O7    O     O_3   0.560042 0.716118 0.602022 -0.642817
O8    O     O_2   0.414118 0.535239 0.322306 -0.498134
O9    O     O_3   0.434596 0.685527 0.330626 -0.591753
O10   O     O_2   0.058605 0.388448 0.202137 -0.588704
O11   O     O_2   0.408403 0.382595 0.804478 -0.600307
O12   O     O_3   0.642803 0.305806 0.397342 -0.628303
O13   O     O_2   0.836913 0.636894 0.196854 -0.618078
O14   O     O_2   0.118690 0.615617 0.794096 -0.553675
O15   O     O_3   0.675650 0.402220 0.588450 -0.488054
O16   O     O_2   0.841050 0.436646 0.672912 -0.499100
O17   O     O_3   0.055301 0.664122 0.622532 -0.625712
O18   O     O_3   0.656949 0.325281 0.676360 -0.592099
O19   O     O_2   0.823810 0.314230 0.476690 -0.472133
O20   O     O_3   0.086630 0.363340 0.564170 -0.492268
O21   O     O_2   0.978825 0.226214 0.534477 -0.473195
O22   O     O_2   0.013254 0.152870 0.354049 -0.557277
O23   O     O_3   0.098763 0.238995 0.625389 -0.596734
O24   O     O_3   0.934680 0.681126 0.863205 -0.597080
O25   O     O_3   0.282544 0.091275 0.549367 -0.630539
O26   O     O_2   0.278810 0.459550 0.382060 -0.461295
O27   O     O_3   0.046820 0.459570 0.442260 -0.491259
O28   O     O_3   0.514050 0.597710 0.411540 -0.477206
O29   O     O_3   0.129919 0.336142 0.375855 -0.618315
O30   O     O_3   0.627090 0.591350 0.524530 -0.473687
O31   O     O_3   0.103080 0.636600 0.435820 -0.492935
P1    P     P_3+3 0.078810 0.562990 0.610370 0.999762
P2    P     P_3+3 0.645380 0.325580 0.462150 0.991981
P3    P     P_3+3 0.120581 0.262216 0.564686 0.977410
P4    P     P_3+3 0.110900 0.436950 0.389630 1.002388
P5    P     P_3+3 0.075153 0.737887 0.433402 0.950456
P6    P     P_3+3 0.670628 0.415235 0.653459 0.969503
P7    P     P_3+3 0.550959 0.688689 0.538017 0.950953
P8    P     P_3+3 0.524756 0.595597 0.347064 0.946954

loop_
_geom_bond_atom_site_label_1
_geom_bond_atom_site_label_2
_ccdc_geom_bond_type
C69   O10   D    
C19   C24   A    
O29   P4    S    
C67   O9    S    
C39   H37   S    
Ba2   O31   S    
C12   O18   S    
Ba1   O19   S    
C23   H9    S    
C45   H18   S    
O6    P7    D    
C31   P1    S    
C14   H42   S    
C27   O11   D    
C51   C57   A    
C43   H41   S    
O28   P8    S    
C10   C11   A    
C24   C25   A    
C63   H5    S    
Ba1   O15   S    
C4    H27   S    
C38   H35   S    
C17   C19   A    
C8    N1    S    
C32   C33   S    
C35   C38   A    
C67   H22   S    
C36   C37   A    
O21   P3    D    
C55   C57   A    
C52   C61   S    
Ba1   O30   S    
C53   C60   A    
C44   C50   A    
Ba1   P2    S    
C20   H33   S    
C54   C55   A    
C49   O25   S    
Ba1   Ba2   S    
C33   N2    S    
O19   P2    D    
C66   H61   S    
C1    H3    S    
C22   C27   A    
C11   C38   A    
Ba1   O5    S    
C17   C35   A    
C9    C13   A    
C25   C42   A    
C61   H62   S    
C21   H32   S    
C29   C30   S    
Ba1   O27   S    
C34   H11   S    
O3    P5    S    
C52   H45   S    
C45   O3    S    
C21   C22   A    
C56   H20   S    
C68   H26   S    
C37   C43   A    
O15   P6    S    
C62   H64   S    
C1    H8    S    
C57   C58   S    
C6    C14   D    
O1    P1    D    
C23   H10   S    
Ba2   O6    S    
C4    H39   S    
C65   H58   S    
C15   C31   D    
C50   P3    S    
C64   O22   D    
C15   H43   S    
C31   C32   D    
C51   C53   A    
O31   P5    S    
C4    C16   S    
C44   C46   A    
C63   H6    S    
C15   C30   S    
C26   N2    Am   
C49   C50   A    
C61   H63   S    
C17   C20   A    
Ba1   O4    S    
C13   C39   A    
C65   H55   S    
Ba2   O27   S    
C69   N1    Am   
C3    C5    S    
C18   C37   A    
C6    C7    D    
C30   P6    S    
O16   P6    D    
O12   P2    S    
O17   P1    S    
O9    P8    S    
C58   C59   T    
C66   H60   S    
C68   H25   S    
C41   C42   A    
C29   H31   S    
C35   C36   A    
C65   O24   S    
C47   H47   S    
O8    P8    D    
C62   H2    S    
C53   P7    S    
C5    P8    S    
O4    P1    S    
C48   C49   A    
C28   H52   S    
C66   H59   S    
O26   P4    D    
C56   H19   S    
Ba2   O28   S    
C28   O29   S    
C1    C12   S    
C16   H51   S    
C46   P2    S    
O18   P6    S    
C46   C47   A    
C10   C69   A    
C28   H53   S    
C7    H29   S    
Ba2   O5    S    
C54   C60   A    
O2    P5    D    
C23   O7    S    
C42   O24   S    
C11   H30   S    
C16   H49   S    
C18   C41   A    
C2    O13   D    
C68   H28   S    
C55   H46   S    
C3    H36   S    
C32   H40   S    
Ba2   O4    S    
C5    C14   S    
C52   H34   S    
C40   H23   S    
C12   H1    S    
C40   H12   S    
C22   C24   A    
C67   H24   S    
Ba2   O26   S    
C52   O17   S    
C4    O23   S    
C9    C10   A    
C66   O25   S    
C34   H14   S    
C27   N2    Am   
C62   O12   S    
C16   H16   S    
C63   H4    S    
C64   H54   S    
O5    P2    S    
C54   P5    S    
C62   C63   S    
C2    C13   A    
Ba1   O20   S    
C3    C8    D    
C65   H57   S    
C45   H17   S    
C45   C56   S    
C34   H13   S    
O7    P7    S    
Ba1   P1    S    
O23   P3    S    
C44   H48   S    
C7    C8    S    
O30   P7    S    
C29   C33   D    
C12   H7    S    
C67   C68   S    
C61   H56   S    
O27   P4    S    
C23   C34   S    
C6    P4    S    
C2    N1    Am   
C18   C19   A    
C26   O14   D    
C47   C48   A    
C25   C26   A    
C40   C64   S    
C48   C59   S    
C39   C43   A    
C20   C21   A    
C28   C40   S    
C9    C36   A    
C41   H38   S    
C56   H21   S    
Ba2   O30   S    
C60   H50   S    
O20   P3    S    
Ba1   O1    S    
C51   H44   S    
Ba2   P4    S    
C1    H15   S    
