data_mof_unit_pretest_1221.cif
_audit_creation_date              2012-12-10T18:02:51-0500
_audit_creation_method            fapswitch 2.2
_symmetry_space_group_name_H-M    P1
_symmetry_Int_Tables_number       1
_space_group_crystal_system       triclinic
_cell_length_a                    10.88922
_cell_length_b                    9.530734
_cell_length_c                    27.757592
_cell_angle_alpha                 90.422781
_cell_angle_beta                  89.560428
_cell_angle_gamma                 89.850298
_cell_volume                      2880.5721436

loop_
_atom_site_label
_atom_site_type_symbol
_atom_type_description
_atom_site_fract_x
_atom_site_fract_y
_atom_site_fract_z
_atom_type_partial_charge
C1    C     C_R   0.262596 0.500438 0.500214 0.774988
C2    C     C_R   0.737923 0.498514 0.500463 0.786029
C3    C     C_R   0.458836 0.512956 0.101885 -0.120178
C4    C     C_R   0.467930 0.500551 0.899088 -0.117883
C5    C     C_R   0.353571 0.469078 0.127567 -0.114927
C6    C     C_R   0.580416 0.482600 0.874135 -0.123628
C7    C     C_R   0.250688 0.419394 0.102072 0.575179
C8    C     C_R   0.688857 0.457886 0.900197 0.579679
C9    C     C_R   0.561895 0.566570 0.126770 -0.143284
C10   C     C_R   0.357941 0.524346 0.873427 -0.144914
C11   C     C_R   0.487151 0.500988 0.354805 -0.173800
C12   C     C_R   0.483741 0.501206 0.645625 -0.187473
C13   C     C_R   0.352740 0.495968 0.975092 -0.004916
C14   C     C_R   0.571708 0.525912 0.025682 -0.010130
C15   C     C_R   0.577131 0.492549 0.975803 0.013472
C16   C     C_R   0.352740 0.470398 0.025540 0.018257
C17   C     C_R   0.465888 0.495615 0.949924 -0.030850
C18   C     C_R   0.461021 0.502907 0.051098 -0.030696
C19   C     C_R   0.246029 0.535253 0.950144 0.639232
C20   C     C_R   0.668751 0.593319 0.049646 0.643292
C21   C     C_R   0.247533 0.551615 0.899817 -0.155985
C22   C     C_R   0.664362 0.616457 0.099648 -0.148925
C23   C     C_R   0.496135 0.499962 0.407617 0.919442
C24   C     C_R   0.494908 0.500390 0.592545 0.875019
C25   C     C_R   0.250460 0.415987 0.051499 -0.107657
C26   C     C_R   0.687700 0.458632 0.950700 -0.110995
C27   C     C_R   0.066627 0.403437 0.470856 -0.091325
C28   C     C_R   0.935084 0.586909 0.533499 -0.108095
C29   C     C_R   0.938364 0.392061 0.474569 -0.001447
C30   C     C_R   0.064212 0.587857 0.533309 0.002080
C31   C     C_R   0.872386 0.492312 0.502927 -0.175993
C32   C     C_R   0.128781 0.501039 0.500269 -0.143273
C33   C     C_R   0.433797 0.073610 0.466871 0.531238
C34   C     C_R   0.567906 0.926440 0.532594 0.540151
C35   C     C_R   0.567972 0.074919 0.532616 0.509057
C36   C     C_R   0.432400 0.925152 0.467268 0.538033
C37   C     C_R   0.356622 0.468792 0.178274 0.624309
C38   C     C_R   0.580725 0.484516 0.823514 0.621882
C39   C     C_R   0.558732 0.565477 0.177754 0.582975
C40   C     C_R   0.363576 0.519780 0.822412 0.578834
C41   C     C_R   0.560873 0.431065 0.275459 -0.149411
C42   C     C_R   0.415567 0.397153 0.721144 -0.149790
C43   C     C_R   0.576987 0.435633 0.325325 -0.135697
C44   C     C_R   0.414595 0.397872 0.670678 -0.106729
C45   C     C_R   0.387000 0.569036 0.333356 0.580337
C46   C     C_R   0.545101 0.605813 0.672231 0.580294
C47   C     C_R   0.376676 0.572444 0.283261 -0.143527
C48   C     C_R   0.540714 0.606290 0.722383 -0.154528
C49   C     C_R   0.463612 0.503530 0.253948 0.228548
C50   C     C_R   0.477050 0.501569 0.747080 0.234704
Cu1   Cu    Cu3+1 0.500000 0.640660 0.500000 1.108910
Cu2   Cu    Cu3+1 0.500000 0.359340 0.500000 1.094640
H1    H     H_    0.301681 0.629922 0.267210 0.199860
H2    H     H_    0.587902 0.687896 0.742244 0.189679
H3    H     H_    0.365026 0.317532 0.740646 0.169683
H4    H     H_    0.629064 0.379398 0.252812 0.175843
N1    N     N_R   0.458651 0.514253 0.202149 -0.453040
N2    N     N_R   0.473659 0.502246 0.798924 -0.456309
N3    N     N_R   0.500000 0.852070 0.500000 -0.362142
N4    N     N_R   0.500000 0.147930 0.500000 -0.346235
O1    O     O_R   0.319640 0.618740 0.500000 -0.567605
O2    O     O_R   0.680360 0.381260 0.500000 -0.575521
O3    O     O_R   0.680360 0.618740 0.500000 -0.553483
O4    O     O_R   0.319640 0.381260 0.500000 -0.539802
O5    O     O_R   0.500020 0.618770 0.430260 -0.498997
O6    O     O_R   0.499980 0.381230 0.569740 -0.511621
O7    O     O_R   0.499980 0.618770 0.569740 -0.522174
O8    O     O_R   0.500020 0.381230 0.430260 -0.550994
O9    O     O_2   0.259808 0.419994 0.203655 -0.424237
O10   O     O_2   0.686854 0.466765 0.798761 -0.416309
O11   O     O_2   0.260304 0.529691 0.796179 -0.525474
O12   O     O_2   0.655727 0.611835 0.203146 -0.539563
F1    F     F_    0.299783 0.633329 0.360963 -0.600086
F2    F     F_    0.611590 0.706651 0.649856 -0.593706
F3    F     F_    0.370537 0.142058 0.432509 -0.581300
F4    F     F_    0.636213 0.858012 0.565415 -0.540808
F5    F     F_    0.637774 0.144821 0.565049 -0.575639
F6    F     F_    0.363031 0.855366 0.434681 -0.525872
F7    F     F_    0.151311 0.368547 0.126196 -0.598269
F8    F     F_    0.795689 0.426872 0.876703 -0.583350
C51   C     C_2   0.334535 0.293509 0.646571 0.495188
H5    H     H_    0.315691 0.194177 0.663996 0.082164
O13   O     O_2   0.282800 0.319994 0.608845 -0.523983
C52   C     C_2   0.695312 0.387005 0.344465 0.477483
H6    H     H_    0.745241 0.302562 0.326554 0.119622
O14   O     O_2   0.742131 0.448005 0.378435 -0.534566
C53   C     C_2   0.135267 0.608382 0.876808 0.612293
H7    H     H_    0.142545 0.681952 0.847327 0.097156
O15   O     O_2   0.033138 0.575540 0.891174 -0.422411
C54   C     C_2   0.765133 0.699604 0.121484 0.598415
H8    H     H_    0.745312 0.777271 0.149225 0.093885
O16   O     O_2   0.871391 0.683716 0.108083 -0.424193
F9    F     F_    0.144152 0.575323 0.975425 -0.627433
F10   F     F_    0.761456 0.651709 0.023542 -0.616667
C55   C     C_2   0.149945 0.336094 0.027957 0.571539
H9    H     H_    0.060333 0.329311 0.045160 0.159068
O17   O     O_2   0.167597 0.271756 0.990320 -0.527991
C56   C     C_2   0.798956 0.404420 0.975288 0.590024
H10   H     H_    0.888558 0.413077 0.958196 0.177182
O18   O     O_2   0.791162 0.343860 0.013803 -0.537578
C57   C     C_2   0.137680 0.313368 0.436472 0.599016
H11   H     H_    0.207736 0.360069 0.413678 0.091339
O19   O     O_2   0.123268 0.186370 0.435272 -0.428371
C58   C     C_2   0.864844 0.678402 0.567675 0.592077
H12   H     H_    0.781199 0.639863 0.584318 0.128713
O20   O     O_2   0.898072 0.797999 0.576645 -0.437238
C59   C     C_2   0.875006 0.273281 0.449788 0.524867
H13   H     H_    0.812257 0.206552 0.469538 0.097115
O21   O     O_2   0.895436 0.245572 0.407473 -0.493751
C60   C     C_2   0.131805 0.669364 0.570587 0.469059
H14   H     H_    0.202210 0.743853 0.560440 0.093564
O22   O     O_2   0.109410 0.652280 0.613312 -0.482637

loop_
_geom_bond_atom_site_label_1
_geom_bond_atom_site_label_2
_ccdc_geom_bond_type
C53   H7    S    
C21   C53   S    
C57   H11   S    
C40   O11   S    
C5    C37   A    
C27   C29   A    
C41   C43   A    
C14   C18   A    
C55   H9    S    
Cu1   O1    S    
C36   N3    A    
C38   O10   S    
C51   H5    S    
C49   N1    S    
C47   C49   A    
C48   H2    S    
C30   C60   S    
C10   C40   A    
C19   C21   A    
C52   O14   D    
C37   O9    S    
C9    C22   A    
C39   N1    A    
C9    C39   A    
C33   C36   A    
C8    C26   A    
C3    C18   A    
C45   F1    S    
C34   C35   A    
Cu1   O5    S    
C41   C49   A    
C60   H14   S    
Cu2   N4    S    
C24   O7    A    
C38   N2    A    
C33   F3    S    
C39   O12   S    
C6    C38   A    
C11   C43   A    
Cu2   O8    S    
C24   O6    A    
C47   H1    S    
C48   C50   A    
C57   O19   D    
C43   C52   S    
C59   O21   D    
C42   C44   A    
C58   O20   D    
C58   H12   S    
C51   O13   D    
C45   C47   A    
C10   C21   A    
C46   C48   A    
C40   N2    A    
C13   C19   A    
Cu1   Cu2   S    
C50   N2    S    
C14   C20   A    
Cu1   O3    S    
C52   H6    S    
C4    C6    A    
C44   C51   S    
Cu2   O4    S    
C5    C7    A    
C15   C26   A    
C6    C8    A    
C35   F5    S    
C1    C32   S    
C1    O1    A    
C35   N4    A    
C23   O8    A    
C41   H4    S    
C3    C9    A    
C42   H3    S    
C28   C58   S    
C54   O16   D    
C59   H13   S    
C22   C54   S    
C16   C18   A    
Cu1   O7    S    
C42   C50   A    
C4    C17   A    
C12   C46   A    
C26   C56   S    
C25   C55   S    
C33   N4    A    
C56   O18   D    
C53   O15   D    
C34   N3    A    
C11   C45   A    
Cu1   N3    S    
C4    C10   A    
C1    O4    A    
C46   F2    S    
Cu2   O6    S    
C2    O3    A    
C7    F7    S    
C16   C25   A    
C15   C17   A    
C20   F10   S    
C27   C32   A    
C28   C31   A    
C29   C59   S    
C20   C22   A    
C3    C5    A    
C19   F9    S    
C55   O17   D    
C12   C24   S    
C7    C25   A    
C13   C17   A    
C23   O5    A    
C28   C30   A    
C29   C31   A    
C36   F6    S    
C30   C32   A    
C54   H8    S    
C11   C23   S    
C27   C57   S    
C60   O22   D    
C12   C44   A    
C56   H10   S    
C13   C16   A    
C8    F8    S    
C14   C15   A    
C2    C31   S    
Cu2   O2    S    
C37   N1    A    
C2    O2    A    
C34   F4    S    
