data_mof_unit_pretest_1991.cif
_audit_creation_date              2012-10-26T21:26:07-0400
_audit_creation_method            fapswitch 2.2
_symmetry_space_group_name_H-M    P1
_symmetry_Int_Tables_number       1
_space_group_crystal_system       triclinic
_cell_length_a                    16.242999
_cell_length_b                    16.242915
_cell_length_c                    30.455145
_cell_angle_alpha                 89.9987
_cell_angle_beta                  89.997775
_cell_angle_gamma                 89.999485
_cell_volume                      8035.0921222

loop_
_atom_site_label
_atom_site_type_symbol
_atom_type_description
_atom_site_fract_x
_atom_site_fract_y
_atom_site_fract_z
_atom_type_partial_charge
C1    C     C_3   0.000015 0.999991 0.250440 -0.021648
C2    C     C_R   0.922076 0.999782 0.283160 -0.013764
C3    C     C_2   0.878178 0.017173 0.174887 0.202718
C4    C     C_2   0.986067 0.880517 0.328480 0.231209
C5    C     C_2   0.017141 0.121810 0.674861 0.202688
C6    C     C_2   0.880508 0.013970 0.828476 0.231203
C7    C     C_2   0.121864 0.982791 0.174890 0.202760
C8    C     C_2   0.013964 0.119490 0.328463 0.231202
C9    C     C_2   0.982783 0.878139 0.674899 0.202773
C10   C     C_R   0.000044 0.613311 0.941507 0.560405
C11   C     C_R   0.000031 0.386491 0.058401 0.553195
C12   C     C_R   0.386691 0.000044 0.441506 0.560401
C13   C     C_R   0.613506 0.000031 0.558401 0.553220
C14   C     C_R   0.999959 0.386688 0.941508 0.560407
C15   C     C_R   0.999967 0.613508 0.058401 0.553198
C16   C     C_R   0.613310 0.999957 0.441506 0.560401
C17   C     C_R   0.386491 0.999968 0.558401 0.553212
C18   C     C_R   0.062544 0.143865 0.217607 0.066235
C19   C     C_3   0.999978 0.000007 0.750436 -0.021649
C20   C     C_R   0.940388 0.855071 0.782228 -0.008029
C21   C     C_R   0.856095 0.062522 0.717614 0.066195
C22   C     C_R   0.144957 0.940399 0.282220 -0.008039
C23   C     C_R   0.937481 0.856116 0.217615 0.066198
C24   C     C_R   0.059567 0.144964 0.782199 -0.008051
C25   C     C_R   0.143865 0.937486 0.717614 0.066243
C26   C     C_R   0.855069 0.059586 0.282217 -0.008013
C27   C     C_R   0.058374 0.919876 0.819711 -0.056185
C28   C     C_R   0.943631 0.079875 0.180786 -0.012195
C29   C     C_R   0.919878 0.941618 0.319721 -0.056140
C30   C     C_R   0.001075 0.078121 0.217535 0.031121
C31   C     C_R   0.079850 0.056364 0.680769 -0.012197
C32   C     C_R   0.941612 0.080155 0.819713 -0.056109
C33   C     C_R   0.056404 0.920095 0.180791 -0.012211
C34   C     C_R   0.080152 0.058383 0.319710 -0.056187
C35   C     C_R   0.920086 0.943601 0.680795 -0.012236
C36   C     C_R   0.059588 0.208900 0.186387 0.038395
C37   C     C_R   0.947968 0.786429 0.810836 0.017438
C38   C     C_R   0.791070 0.059572 0.686391 0.038342
C39   C     C_R   0.213598 0.947975 0.310827 0.017407
C40   C     C_R   0.940417 0.791096 0.186388 0.038360
C41   C     C_R   0.000196 0.922072 0.783158 -0.013791
C42   C     C_R   0.052009 0.213614 0.810807 0.017414
C43   C     C_R   0.208913 0.940454 0.686403 0.038379
C44   C     C_R   0.786423 0.052012 0.310824 0.017442
C45   C     C_R   0.057480 0.855627 0.851084 -0.015570
C46   C     C_R   0.945661 0.142477 0.148492 0.027354
C47   C     C_R   0.855629 0.942528 0.351093 -0.015562
C48   C     C_R   0.142451 0.054322 0.648474 0.027350
C49   C     C_R   0.942538 0.144394 0.851088 -0.015619
C50   C     C_R   0.054371 0.857495 0.148497 0.027352
C51   C     C_R   0.144398 0.057482 0.351082 -0.015581
C52   C     C_R   0.921842 0.001055 0.717539 0.031087
C53   C     C_R   0.857489 0.945632 0.648500 0.027353
C54   C     C_R   0.002661 0.206724 0.151761 0.043503
C55   C     C_R   0.003631 0.789022 0.846014 0.036340
C56   C     C_R   0.793251 0.002644 0.651766 0.043515
C57   C     C_R   0.211002 0.003631 0.346009 0.036327
C58   C     C_R   0.997351 0.793265 0.151763 0.043523
C59   C     C_R   0.996381 0.211002 0.846006 0.036358
C60   C     C_R   0.206718 0.997347 0.651760 0.043491
C61   C     C_R   0.789020 0.996369 0.346012 0.036346
C62   C     C_1   0.998743 0.728039 0.119417 0.076137
C63   C     C_R   0.077954 0.000207 0.283157 -0.013801
C64   C     C_1   0.998283 0.274617 0.879236 0.085022
C65   C     C_1   0.271951 0.998744 0.619417 0.076160
C66   C     C_1   0.725388 0.998270 0.379235 0.084748
C67   C     C_1   0.001258 0.271955 0.119417 0.076140
C68   C     C_1   0.001736 0.725392 0.879237 0.084750
C69   C     C_1   0.728029 0.001251 0.619419 0.076123
C70   C     C_1   0.274625 0.001733 0.379233 0.084761
C71   C     C_1   0.999660 0.675367 0.091684 0.085881
C72   C     C_1   0.999549 0.325990 0.907638 0.088012
C73   C     C_1   0.324628 0.999662 0.591684 0.085890
C74   C     C_R   0.998957 0.921856 0.217540 0.031127
C75   C     C_1   0.674008 0.999543 0.407635 0.087806
C76   C     C_1   0.000336 0.324630 0.091684 0.085889
C77   C     C_1   0.000462 0.674011 0.907637 0.087814
C78   C     C_1   0.675361 0.000334 0.591684 0.085880
C79   C     C_1   0.325999 0.000461 0.407634 0.087817
C80   C     C_2   0.118775 0.279466 0.189954 0.266582
C81   C     C_2   0.893357 0.712690 0.805308 0.243430
C82   C     C_2   0.720509 0.118767 0.689952 0.266515
C83   C     C_2   0.287341 0.893365 0.305294 0.243466
C84   C     C_2   0.881199 0.720555 0.189943 0.266574
C85   C     C_R   0.999768 0.077955 0.783149 -0.013729
C86   C     C_2   0.106608 0.287370 0.805251 0.243721
C87   C     C_2   0.279514 0.881321 0.690000 0.266526
C88   C     C_2   0.712673 0.106607 0.305281 0.243464
C89   C     C_2   0.114081 0.858910 0.889915 0.248808
C90   C     C_2   0.884233 0.142005 0.111772 0.293604
C91   C     C_2   0.858916 0.885952 0.389937 0.248785
C92   C     C_2   0.141960 0.115715 0.611737 0.293614
C93   C     C_2   0.885975 0.141097 0.889938 0.248727
C94   C     C_2   0.115811 0.857956 0.111781 0.293599
C95   C     C_2   0.141113 0.114077 0.389916 0.248782
C96   C     C_R   0.078106 0.998940 0.717529 0.031110
C97   C     C_2   0.857960 0.884196 0.611783 0.293600
C98   C     C_2   0.137605 0.145965 0.245477 0.229774
C99   C     C_2   0.864408 0.854071 0.755168 0.173838
C100  C     C_2   0.853980 0.137575 0.745491 0.229831
C101  C     C_2   0.145958 0.864425 0.255155 0.173833
C102  C     C_2   0.862437 0.854006 0.245500 0.229770
C103  C     C_2   0.135523 0.145949 0.755119 0.173810
C104  C     C_2   0.145969 0.862424 0.745486 0.229867
C105  C     C_2   0.854066 0.135553 0.255145 0.173823
C106  C     C_2   0.119475 0.986069 0.828460 0.231182
Cu1   Cu    Cu3+1 0.916660 0.500000 0.000000 1.081388
Cu2   Cu    Cu3+1 0.083340 0.500000 0.000000 1.081509
Cu3   Cu    Cu3+1 0.500000 0.916660 0.500000 1.081409
Cu4   Cu    Cu3+1 0.500000 0.083340 0.500000 1.081382
H1    H     H_    0.136009 0.303032 0.221991 0.118754
H2    H     H_    0.820954 0.123951 0.117939 0.129014
H3    H     H_    0.878559 0.822580 0.386074 0.167921
H4    H     H_    0.123889 0.178995 0.617886 0.129019
H5    H     H_    0.822602 0.121460 0.886081 0.167936
H6    H     H_    0.179091 0.876000 0.117951 0.128999
H7    H     H_    0.121481 0.177450 0.386043 0.167911
H8    H     H_    0.876008 0.820916 0.617954 0.128992
H9    H     H_    0.141593 0.188697 0.272626 0.157056
H10   H     H_    0.857318 0.808328 0.729474 0.085634
H11   H     H_    0.811213 0.141565 0.772626 0.157087
H12   H     H_    0.830207 0.719382 0.794315 0.134983
H13   H     H_    0.191717 0.857331 0.229467 0.085624
H14   H     H_    0.858461 0.811253 0.272641 0.157080
H15   H     H_    0.142581 0.191659 0.729405 0.085435
H16   H     H_    0.188717 0.858428 0.772628 0.157016
H17   H     H_    0.808312 0.142635 0.229455 0.085629
H18   H     H_    0.101169 0.040255 0.846724 0.140765
H19   H     H_    0.827187 0.014404 0.197338 0.158380
H20   H     H_    0.040252 0.898828 0.346742 0.140729
H21   H     H_    0.014363 0.172807 0.697306 0.158354
H22   H     H_    0.898817 0.959785 0.846740 0.140727
H23   H     H_    0.696901 0.135968 0.721987 0.118725
H24   H     H_    0.172859 0.985546 0.197336 0.158359
H25   H     H_    0.959778 0.101188 0.346729 0.140737
H26   H     H_    0.985530 0.827142 0.697346 0.158359
H27   H     H_    0.280655 0.830229 0.294274 0.134949
H28   H     H_    0.863957 0.696966 0.221976 0.118723
H29   H     H_    0.169634 0.280724 0.794041 0.134927
H30   H     H_    0.303072 0.864140 0.722047 0.118759
H31   H     H_    0.719352 0.169743 0.294258 0.134940
H32   H     H_    0.177444 0.878567 0.886041 0.167929
O1    O     O_R   0.929840 0.586710 0.956230 -0.500477
O2    O     O_R   0.070160 0.586710 0.956230 -0.493562
O3    O     O_R   0.413290 0.070160 0.543770 -0.500673
O4    O     O_R   0.586710 0.929840 0.456230 -0.493589
O5    O     O_R   0.070160 0.586710 0.043770 -0.500652
O6    O     O_R   0.929840 0.413290 0.956230 -0.493635
O7    O     O_R   0.586710 0.929840 0.543770 -0.500648
O8    O     O_R   0.413290 0.070160 0.456230 -0.493595
O9    O     O_2   0.150737 0.309941 0.157508 -0.459978
O10   O     O_2   0.919302 0.643214 0.811889 -0.460798
O11   O     O_2   0.690090 0.150772 0.657504 -0.459926
O12   O     O_R   0.070160 0.413290 0.043770 -0.487943
O13   O     O_2   0.356816 0.919296 0.311901 -0.460782
O14   O     O_2   0.849218 0.690130 0.157490 -0.459937
O15   O     O_2   0.080800 0.356831 0.812061 -0.461023
O16   O     O_2   0.310029 0.849348 0.657569 -0.460024
O17   O     O_2   0.643201 0.080664 0.311885 -0.460772
O18   O     O_2   0.089634 0.842278 0.926780 -0.458272
O19   O     O_2   0.904343 0.159028 0.074217 -0.433131
O20   O     O_2   0.842304 0.910432 0.426798 -0.458266
O21   O     O_2   0.158986 0.095574 0.574188 -0.433132
O22   O     O_2   0.910470 0.157691 0.926798 -0.458294
O23   O     O_R   0.413290 0.929840 0.456230 -0.500469
O24   O     O_2   0.095710 0.840938 0.074225 -0.433131
O25   O     O_2   0.157716 0.089613 0.426782 -0.458267
O26   O     O_2   0.840943 0.904299 0.574227 -0.433124
O27   O     O_2   0.199554 0.108338 0.235181 -0.490914
O28   O     O_2   0.806044 0.898245 0.763919 -0.456308
O29   O     O_2   0.891644 0.199517 0.735216 -0.491076
O30   O     O_2   0.101760 0.806070 0.263892 -0.456309
O31   O     O_2   0.800486 0.891653 0.235225 -0.490957
O32   O     O_2   0.193904 0.101795 0.763871 -0.456257
O33   O     O_2   0.108319 0.800483 0.735201 -0.490914
O34   O     O_R   0.586710 0.070160 0.543770 -0.487946
O35   O     O_2   0.898256 0.193915 0.263878 -0.456320
O36   O     O_2   0.192348 0.976107 0.820374 -0.483563
O37   O     O_2   0.878732 0.971567 0.142987 -0.430194
O38   O     O_2   0.976101 0.807639 0.320408 -0.483538
O39   O     O_2   0.971536 0.121240 0.642961 -0.430219
O40   O     O_2   0.807630 0.023942 0.820407 -0.483546
O41   O     O_2   0.121311 0.028403 0.142992 -0.430164
O42   O     O_2   0.023931 0.192364 0.320380 -0.483560
O43   O     O_2   0.028402 0.878691 0.643003 -0.430179
O44   O     O_R   0.070160 0.413290 0.956230 -0.500401
O45   O     O_R   0.929840 0.586710 0.043770 -0.487949
O46   O     O_R   0.586710 0.070160 0.456230 -0.500471
O47   O     O_R   0.413290 0.929840 0.543770 -0.487941
O48   O     O_R   0.929840 0.413290 0.043770 -0.500665

loop_
_geom_bond_atom_site_label_1
_geom_bond_atom_site_label_2
_ccdc_geom_bond_type
C58   C62   S    
C13   O34   A    
C6    C32   S    
C20   C37   A    
C14   O6    A    
C80   O9    D    
C16   C75   S    
C24   C42   A    
C40   C84   S    
Cu3   O7    S    
Cu3   O4    S    
C90   H2    S    
C87   H30   S    
C94   O24   D    
C55   C68   S    
C26   C44   A    
C98   H9    S    
C99   O28   D    
C95   H7    S    
C102  O31   D    
C28   C46   A    
C34   C51   A    
C101  H13   S    
C22   C101  S    
C6    O40   D    
C2    C29   A    
C1    C74   S    
Cu2   O44   S    
C3    C28   S    
C1    C2    S    
C9    O43   D    
C11   C76   S    
C14   O44   A    
C23   C102  S    
C35   C53   A    
C32   C85   A    
C31   C96   A    
C39   C57   A    
C12   C79   S    
C106  H18   S    
C65   C73   T    
C80   H1    S    
C101  O30   D    
C16   O4    A    
C100  H11   S    
C93   H5    S    
C88   O17   D    
C97   H8    S    
C3    O37   D    
C1    C30   S    
C5    C31   S    
C11   O12   A    
C22   C63   A    
C8    C34   S    
C82   O11   D    
C61   C66   S    
C21   C38   A    
Cu3   O47   S    
Cu1   Cu2   S    
C38   C56   A    
C91   O20   D    
C51   C57   A    
C20   C41   A    
C57   C70   S    
Cu4   O3    S    
C45   C89   S    
C24   C85   A    
C4    C29   S    
Cu2   O5    S    
C8    O42   D    
C99   H10   S    
C84   H28   S    
C38   C82   S    
C8    H25   S    
C17   C73   S    
C7    C33   S    
C37   C81   S    
C69   C78   T    
C14   C72   S    
C4    O38   D    
C102  H14   S    
C19   C52   S    
C26   C105  S    
C5    O39   D    
C10   C77   S    
C48   C60   A    
C104  O33   D    
C40   C58   A    
C105  H17   S    
C90   O19   D    
C50   C58   A    
C12   O8    A    
C7    H24   S    
C6    H22   S    
C22   C39   A    
C16   O46   A    
C12   O23   A    
C98   O27   D    
C21   C100  S    
C94   H6    S    
C50   C94   S    
C4    H20   S    
C54   C67   S    
C27   C106  S    
C53   C97   S    
C33   C50   A    
C15   O45   A    
C103  O32   D    
C91   H3    S    
C93   O22   D    
C89   H32   S    
C17   O3    A    
C27   C41   A    
Cu4   O46   S    
C46   C54   A    
C59   C64   S    
C104  H16   S    
C2    C26   A    
C10   O2    A    
Cu3   O23   S    
C43   C60   A    
C42   C86   S    
C86   H29   S    
C92   O21   D    
C25   C43   A    
Cu2   O2    S    
C29   C47   A    
C60   C65   S    
C31   C48   A    
C36   C80   S    
C18   C30   A    
Cu2   O12   S    
C23   C74   A    
Cu1   O1    S    
C97   O26   D    
C88   H31   S    
C83   H27   S    
C89   O18   D    
C53   C56   A    
C68   C77   T    
C13   C78   S    
C1    C63   S    
C70   C79   T    
C3    H19   S    
C47   C91   S    
C105  O35   D    
C19   C85   S    
C95   O25   D    
C42   C59   A    
C47   C61   A    
C25   C104  S    
C46   C90   S    
Cu4   O34   S    
C44   C61   A    
C81   O10   D    
C15   C71   S    
C49   C59   A    
C87   O16   D    
C7    O41   D    
C81   H12   S    
C11   O48   A    
C43   C87   S    
C24   C103  S    
C82   H23   S    
C28   C30   A    
C39   C83   S    
Cu3   Cu4   S    
C15   O5    A    
Cu1   O6    S    
C84   O14   D    
C27   C45   A    
C20   C99   S    
C92   H4    S    
Cu4   O8    S    
C66   C75   T    
Cu1   O48   S    
C34   C63   A    
C17   O47   A    
C62   C71   T    
C10   O1    A    
C64   C72   T    
C103  H15   S    
C86   O15   D    
C32   C49   A    
C36   C54   A    
C13   O7    A    
C37   C55   A    
C9    H26   S    
C19   C41   S    
C33   C74   A    
C5    H21   S    
C83   O13   D    
C45   C55   A    
C25   C96   A    
C56   C69   S    
C48   C92   S    
C35   C52   A    
C9    C35   S    
Cu1   O45   S    
C67   C76   T    
C18   C98   S    
C49   C93   S    
C44   C88   S    
C18   C36   A    
C106  O36   D    
C21   C52   A    
C19   C96   S    
C23   C40   A    
C51   C95   S    
C100  O29   D    
