data_mof_unit_pretest_1518.cif
_audit_creation_date              2012-12-11T17:37:23-0500
_audit_creation_method            fapswitch 2.2
_symmetry_space_group_name_H-M    P1
_symmetry_Int_Tables_number       1
_space_group_crystal_system       triclinic
_cell_length_a                    23.736818
_cell_length_b                    6.9148
_cell_length_c                    21.96061
_cell_angle_alpha                 89.999785
_cell_angle_beta                  101.728572
_cell_angle_gamma                 90.000042
_cell_volume                      3529.25580704

loop_
_atom_site_label
_atom_site_type_symbol
_atom_type_description
_atom_site_fract_x
_atom_site_fract_y
_atom_site_fract_z
_atom_type_partial_charge
O1    O     O_R   0.301920 0.607900 0.199160 -0.533315
O2    O     O_R   0.698080 0.392100 0.800840 -0.533432
O3    O     O_R   0.198080 0.107900 0.300840 -0.533319
O4    O     O_R   0.801920 0.892100 0.699160 -0.533432
O5    O     O_R   0.190790 0.275820 0.184850 -0.521685
O6    O     O_R   0.809210 0.724180 0.815150 -0.522230
O7    O     O_R   0.309210 0.775820 0.315150 -0.521684
O8    O     O_R   0.690790 0.224180 0.684850 -0.522228
C1    C     C_R   0.168744 0.447180 0.166652 0.716245
C2    C     C_R   0.831258 0.552820 0.833345 0.715325
C3    C     C_R   0.331256 0.947180 0.333348 0.716244
C4    C     C_R   0.668742 0.052820 0.666655 0.715320
O9    O     O_R   0.301050 0.278040 0.191980 -0.529957
O10   O     O_R   0.698950 0.721960 0.808020 -0.527383
O11   O     O_R   0.198950 0.778040 0.308020 -0.529958
O12   O     O_R   0.801050 0.221960 0.691980 -0.527373
O13   O     O_R   0.309130 0.110040 0.308020 -0.523098
O14   O     O_R   0.690870 0.889960 0.691980 -0.523123
O15   O     O_R   0.190870 0.610040 0.191980 -0.523097
O16   O     O_R   0.809130 0.389960 0.808020 -0.523122
C5    C     C_R   0.317545 0.446953 0.176900 0.737963
C6    C     C_R   0.682461 0.553086 0.823216 0.746510
C7    C     C_R   0.182453 0.946952 0.323099 0.737987
C8    C     C_R   0.817537 0.053086 0.676781 0.746518
O17   O     O_3   0.252520 0.442130 0.288070 -0.352221
O18   O     O_3   0.747480 0.557870 0.711930 -0.351735
O19   O     O_3   0.247480 0.942130 0.211930 -0.352218
O20   O     O_3   0.752520 0.057870 0.788070 -0.351743
V1    V     V_3+5 0.249530 0.166380 0.242940 1.480131
V2    V     V_3+5 0.750470 0.833620 0.757060 1.488358
V3    V     V_3+5 0.250470 0.666380 0.257060 1.480132
V4    V     V_3+5 0.749530 0.333620 0.742940 1.488366
C9    C     C_R   0.898693 0.177436 0.546558 0.440773
C10   C     C_R   0.107626 0.835967 0.459141 0.367971
C11   C     C_R   0.601266 0.677494 0.953398 0.440743
C12   C     C_R   0.392351 0.336003 0.040837 0.368008
C13   C     C_R   0.855438 0.178858 0.583182 0.088862
C14   C     C_R   0.149419 0.834123 0.420740 0.075662
C15   C     C_R   0.644541 0.678872 0.916800 0.088862
C16   C     C_R   0.350569 0.334128 0.079251 0.075716
C17   C     C_R   0.858112 0.045112 0.632935 -0.169788
C18   C     C_R   0.142455 0.954923 0.367379 -0.141363
C19   C     C_R   0.641877 0.545111 0.867054 -0.169794
C20   C     C_R   0.357539 0.454927 0.132613 -0.141410
C21   C     C_R   0.901178 0.903092 0.641995 -0.168412
C22   C     C_R   0.095780 0.083003 0.355171 -0.185556
C23   C     C_R   0.598814 0.403085 0.857989 -0.168404
C24   C     C_R   0.404212 0.583016 0.144814 -0.185435
H1    H     H_    0.903885 0.798291 0.679150 0.142861
H2    H     H_    0.089807 0.177367 0.314984 0.135626
H3    H     H_    0.596115 0.298268 0.820840 0.142858
H4    H     H_    0.410188 0.677377 0.185002 0.135597
C25   C     C_R   0.941520 0.894256 0.603892 -0.068727
C26   C     C_R   0.055840 0.089863 0.393787 -0.181208
C27   C     C_R   0.558465 0.394249 0.896085 -0.068705
C28   C     C_R   0.444146 0.589882 0.106191 -0.181237
H5    H     H_    0.973663 0.780789 0.611868 0.199676
H6    H     H_    0.020453 0.191495 0.383022 0.178750
H7    H     H_    0.526329 0.280761 0.888114 0.199690
H8    H     H_    0.479534 0.691513 0.116952 0.178594
C29   C     C_R   0.940983 0.029322 0.556307 -0.072665
C30   C     C_R   0.061048 0.968481 0.445661 -0.047675
C31   C     C_R   0.558988 0.529348 0.943657 -0.072617
C32   C     C_R   0.438931 0.468510 0.054314 -0.047722
C33   C     C_1   0.983344 0.007447 0.517284 0.200504
C34   C     C_1   0.018715 0.988666 0.484775 0.171089
C35   C     C_1   0.516629 0.507471 0.982684 0.200544
C36   C     C_1   0.481262 0.488694 0.015197 0.170950
C37   C     C_1   0.616666 0.040813 0.614530 -0.180431
C38   C     C_1   0.383320 0.959182 0.385485 -0.179903
C39   C     C_1   0.883334 0.540813 0.885470 -0.180430
C40   C     C_1   0.116680 0.459183 0.114514 -0.179894
C41   C     C_1   0.573299 0.026835 0.571766 0.029602
C42   C     C_1   0.426680 0.973153 0.428259 0.030515
C43   C     C_1   0.926701 0.526834 0.928234 0.029611
C44   C     C_1   0.073320 0.473154 0.071741 0.030527
C45   C     C_1   0.521732 0.008108 0.521271 0.027678
C46   C     C_1   0.478241 0.991876 0.478758 0.028008
C47   C     C_1   0.978268 0.508108 0.978729 0.027690
C48   C     C_1   0.021758 0.491876 0.021242 0.028021
S1    S     S_3+6 0.898865 0.359454 0.488841 0.031925
O21   O     O_2   0.886823 0.553529 0.514226 -0.315445
O22   O     O_2   0.955464 0.371244 0.468429 -0.344672
O23   O     O_3   0.846758 0.307405 0.426886 -0.475522
H9    H     H_    0.845770 0.419653 0.398662 0.380179
S2    S     S_3+6 0.114671 0.672840 0.523344 0.105320
O24   O     O_2   0.164360 0.737224 0.573052 -0.236658
O25   O     O_2   0.061653 0.663455 0.550689 -0.318456
O26   O     O_3   0.128304 0.448790 0.500383 -0.446303
H10   H     H_    0.096012 0.420057 0.465328 0.336969
S3    S     S_3+6 0.601045 0.859583 0.011081 0.031790
O27   O     O_2   0.613253 0.053581 0.985759 -0.315327
O28   O     O_2   0.544362 0.871695 0.031303 -0.344749
O29   O     O_3   0.652994 0.807275 0.073160 -0.475576
H11   H     H_    0.653861 0.919303 0.101448 0.380103
S4    S     S_3+6 0.385287 0.172917 0.976622 0.105398
O30   O     O_2   0.335547 0.237206 0.926959 -0.236645
O31   O     O_2   0.438270 0.163694 0.949211 -0.318411
O32   O     O_3   0.371727 0.948816 0.999599 -0.446332
H12   H     H_    0.404071 0.920091 0.034598 0.337044
I1    I     I_    0.781303 0.362549 0.557716 -0.218443
I2    I     I_    0.227011 0.667695 0.447054 -0.187181
I3    I     I_    0.718702 0.862414 0.942313 -0.218249
I4    I     I_    0.272991 0.167616 0.052961 -0.187120

loop_
_geom_bond_atom_site_label_1
_geom_bond_atom_site_label_2
_ccdc_geom_bond_type
O17   V3    S    
C39   C43   T    
C4    C37   S    
O1    C5    A    
C27   H7    S    
O19   V1    S    
O13   V1    S    
O3    C7    A    
C1    C40   S    
C10   C30   A    
C40   C44   T    
O15   V3    S    
S1    O21   D    
C3    C38   S    
C45   C46   T    
O7    C3    A    
C7    C18   S    
C32   C36   S    
O9    V1    S    
C14   C18   A    
C18   C22   A    
O4    C8    A    
S2    O25   D    
S3    O28   D    
S4    O32   S    
O1    V3    S    
O2    V4    S    
C10   S2    S    
O3    V1    S    
C38   C42   T    
C12   C16   A    
C25   C29   A    
C1    O15   A    
O32   H12   S    
C2    O16   A    
C27   C31   A    
O2    C6    A    
C28   C32   A    
C37   C41   T    
O14   V2    S    
C16   C20   A    
C2    C39   S    
O11   C7    A    
C21   C25   A    
O12   C8    A    
C8    C17   S    
O10   V2    S    
S1    O22   D    
O5    V1    S    
O17   V1    S    
C31   C35   S    
O7    V3    S    
C30   C34   S    
O19   V3    S    
C35   C36   T    
O8    V4    S    
O20   V4    S    
O23   H9    S    
S3    O27   D    
C25   H5    S    
S2    O24   D    
C15   C19   A    
C26   C30   A    
C9    C13   A    
C28   H8    S    
S4    O31   D    
C11   C15   A    
O5    C1    A    
C16   I4    S    
C5    C20   S    
C12   S4    S    
C6    C19   S    
C21   H1    S    
O8    C4    A    
S4    O30   D    
C22   C26   A    
C26   H6    S    
O9    C5    A    
O11   V3    S    
O6    V2    S    
O18   V2    S    
C43   C47   S    
S1    O23   S    
C23   C27   A    
O16   V4    S    
C24   C28   A    
C3    O13   A    
C17   C21   A    
C10   C14   A    
C44   C48   S    
S2    O26   S    
O6    C2    A    
C23   H3    S    
C15   I3    S    
O18   V4    S    
O12   V4    S    
C22   H2    S    
O10   C6    A    
O20   V2    S    
C14   I2    S    
S3    O29   S    
C13   I1    S    
C19   C23   A    
C13   C17   A    
O29   H11   S    
C47   C48   T    
C29   C33   S    
C24   H4    S    
C9    C29   A    
C33   C34   T    
C42   C46   S    
C4    O14   A    
C41   C45   S    
C11   C31   A    
O26   H10   S    
C12   C32   A    
C9    S1    S    
O4    V2    S    
C20   C24   A    
C11   S3    S    
