data_mof_unit_pretest_875.cif
_audit_creation_date              2012-12-11T15:22:30-0500
_audit_creation_method            fapswitch 2.2
_symmetry_space_group_name_H-M    P1
_symmetry_Int_Tables_number       1
_space_group_crystal_system       triclinic
_cell_length_a                    22.504876
_cell_length_b                    12.970534
_cell_length_c                    26.976537
_cell_angle_alpha                 89.92288
_cell_angle_beta                  90.883593
_cell_angle_gamma                 89.994488
_cell_volume                      7873.51460307

loop_
_atom_site_label
_atom_site_type_symbol
_atom_type_description
_atom_site_fract_x
_atom_site_fract_y
_atom_site_fract_z
_atom_type_partial_charge
C1    C     C_R   0.720327 0.345587 0.178257 0.538758
C2    C     C_R   0.279669 0.345496 0.821753 0.533391
C3    C     C_R   0.220327 0.845587 0.178257 0.538757
C4    C     C_R   0.779669 0.845496 0.821753 0.533391
C5    C     C_R   0.475692 0.162062 0.871520 -0.020723
C6    C     C_R   0.524362 0.162263 0.128442 -0.019394
C7    C     C_R   0.975692 0.662062 0.871520 -0.020723
C8    C     C_R   0.024362 0.662263 0.128442 -0.019394
C9    C     C_R   0.520408 0.255732 0.102586 -0.134780
C10   C     C_R   0.479856 0.255575 0.897203 -0.136039
C11   C     C_R   0.020408 0.755732 0.102586 -0.134780
C12   C     C_R   0.979856 0.755575 0.897203 -0.136039
C13   C     C_R   0.508824 0.255779 0.051517 0.017649
C14   C     C_R   0.491470 0.255691 0.948263 0.017865
C15   C     C_R   0.008824 0.755779 0.051517 0.017649
C16   C     C_R   0.991471 0.755691 0.948263 0.017865
C17   C     C_R   0.503499 0.160894 0.025872 0.015829
C18   C     C_R   0.496645 0.160845 0.974077 0.016028
C19   C     C_R   0.003499 0.660894 0.025872 0.015830
C20   C     C_R   0.996645 0.660845 0.974077 0.016028
C21   C     C_R   0.504991 0.349078 0.025393 -0.127970
C22   C     C_R   0.495465 0.349038 0.974213 -0.128232
C23   C     C_R   0.004991 0.849078 0.025393 -0.127970
C24   C     C_R   0.995465 0.849038 0.974213 -0.128232
C25   C     C_R   0.734806 0.968789 0.127804 0.029024
C26   C     C_R   0.265233 0.968570 0.872175 0.031054
C27   C     C_R   0.234806 0.468789 0.127804 0.029024
C28   C     C_R   0.765233 0.468570 0.872175 0.031054
C29   C     C_R   0.787500 0.929562 0.108493 -0.133654
C30   C     C_R   0.212651 0.928806 0.891475 -0.135980
C31   C     C_R   0.287500 0.429562 0.108493 -0.133654
C32   C     C_R   0.712651 0.428806 0.891475 -0.135980
C33   C     C_R   0.791226 0.910874 0.057648 -0.088918
C34   C     C_R   0.208919 0.910137 0.942336 -0.089463
C35   C     C_R   0.291226 0.410874 0.057648 -0.088918
C36   C     C_R   0.708919 0.410138 0.942336 -0.089463
C37   C     C_R   0.742905 0.934377 0.025817 0.038185
C38   C     C_R   0.257107 0.934231 0.974165 0.038120
C39   C     C_R   0.242905 0.434377 0.025817 0.038185
C40   C     C_R   0.757107 0.434232 0.974166 0.038120
C41   C     C_R   0.690149 0.972111 0.045472 -0.151781
C42   C     C_R   0.309761 0.972473 0.954518 -0.152065
C43   C     C_R   0.190149 0.472110 0.045472 -0.151781
C44   C     C_R   0.809761 0.472474 0.954519 -0.152065
C45   C     C_R   0.553203 0.157198 0.177671 0.541018
C46   C     C_R   0.446806 0.157114 0.822317 0.530770
C47   C     C_R   0.053203 0.657199 0.177671 0.541018
C48   C     C_R   0.946806 0.657114 0.822317 0.530771
C49   C     C_R   0.686237 0.989369 0.096031 -0.135096
C50   C     C_R   0.313693 0.989677 0.903947 -0.133889
C51   C     C_R   0.186237 0.489369 0.096031 -0.135096
C52   C     C_R   0.813693 0.489678 0.903947 -0.133889
C53   C     C_R   0.704896 0.869143 0.944878 -0.156688
C54   C     C_R   0.295216 0.869618 0.055234 -0.156296
C55   C     C_R   0.204896 0.369143 0.944878 -0.156687
C56   C     C_R   0.795216 0.369618 0.055234 -0.156296
C57   C     C_R   0.712480 0.848639 0.894667 -0.137311
C58   C     C_R   0.287634 0.849219 0.105468 -0.135925
C59   C     C_R   0.212480 0.348638 0.894667 -0.137311
C60   C     C_R   0.787634 0.349219 0.105468 -0.135925
C61   C     C_R   0.803161 0.949434 0.896434 -0.112387
C62   C     C_R   0.196626 0.949184 0.103409 -0.111626
C63   C     C_R   0.303161 0.449434 0.896434 -0.112387
C64   C     C_R   0.696626 0.449185 0.103409 -0.111626
C65   C     C_R   0.796438 0.969073 0.946836 0.146270
C66   C     C_R   0.203343 0.968695 0.052981 0.146259
C67   C     C_R   0.296438 0.469073 0.946836 0.146270
C68   C     C_R   0.703343 0.468695 0.052981 0.146259
C69   C     C_R   0.748149 0.924701 0.971785 0.053650
C70   C     C_R   0.251812 0.924678 0.028184 0.053515
C71   C     C_R   0.248149 0.424701 0.971785 0.053650
C72   C     C_R   0.751812 0.424679 0.028184 0.053515
C73   C     C_R   0.762847 0.885654 0.870510 -0.001654
C74   C     C_R   0.237110 0.885843 0.129486 -0.001242
C75   C     C_R   0.262847 0.385654 0.870510 -0.001654
C76   C     C_R   0.737110 0.385843 0.129486 -0.001242
C77   C     C_R   0.538717 0.164545 0.373881 0.092980
C78   C     C_R   0.474315 0.168705 0.629719 0.044999
C79   C     C_R   0.038717 0.664544 0.373881 0.092979
C80   C     C_R   0.974315 0.668704 0.629719 0.044997
C81   C     C_R   0.495112 0.231937 0.391375 0.409918
C82   C     C_R   0.476535 0.264225 0.604629 0.386700
C83   C     C_R   0.995114 0.731940 0.391375 0.409921
C84   C     C_R   0.976536 0.764225 0.604630 0.386696
C85   C     C_R   0.484832 0.237936 0.442398 -0.061816
C86   C     C_R   0.492332 0.268015 0.554808 -0.077954
C87   C     C_R   0.984833 0.737939 0.442399 -0.061814
C88   C     C_R   0.992333 0.768015 0.554808 -0.077954
C89   C     C_R   0.730739 0.002864 0.179158 0.542908
C90   C     C_R   0.269247 0.002710 0.820814 0.532282
C91   C     C_R   0.230739 0.502864 0.179158 0.542908
C92   C     C_R   0.769247 0.502710 0.820814 0.532281
C93   C     C_R   0.519216 0.178789 0.476022 -0.022677
C94   C     C_R   0.506372 0.177230 0.529439 -0.023988
C95   C     C_R   0.019217 0.678789 0.476022 -0.022677
C96   C     C_R   0.006372 0.677230 0.529439 -0.023987
C97   C     C_R   0.564558 0.115839 0.458119 -0.144055
C98   C     C_R   0.506975 0.083034 0.555132 -0.141841
C99   C     C_R   0.064557 0.615836 0.458119 -0.144054
C100  C     C_R   0.006974 0.583033 0.555132 -0.141841
C101  C     C_R   0.573588 0.107616 0.407650 -0.153398
C102  C     C_R   0.491453 0.078894 0.604722 -0.178152
C103  C     C_R   0.073586 0.607613 0.407650 -0.153401
C104  C     C_R   0.991452 0.578894 0.604722 -0.178152
C105  C     C_R   0.742862 0.953395 0.371198 -0.007268
C106  C     C_R   0.257527 0.953396 0.629365 0.019006
C107  C     C_R   0.242862 0.453395 0.371198 -0.007267
C108  C     C_R   0.757526 0.453394 0.629366 0.019008
C109  C     C_R   0.700735 0.885848 0.391201 -0.094677
C110  C     C_R   0.294970 0.874648 0.612596 -0.083697
C111  C     C_R   0.200735 0.385847 0.391200 -0.094677
C112  C     C_R   0.794970 0.374646 0.612597 -0.083699
C113  C     C_R   0.704196 0.857841 0.441169 0.151233
C114  C     C_R   0.292531 0.843198 0.562934 0.159094
C115  C     C_R   0.204196 0.357840 0.441169 0.151234
C116  C     C_R   0.792530 0.343195 0.562935 0.159093
C117  C     C_R   0.750213 0.899548 0.470991 0.029144
C118  C     C_R   0.251546 0.892518 0.530519 0.035498
C119  C     C_R   0.250213 0.399547 0.470991 0.029144
C120  C     C_R   0.751544 0.392513 0.530520 0.035498
C121  C     C_R   0.794247 0.961102 0.450263 -0.139799
C122  C     C_R   0.213101 0.968505 0.548287 -0.143862
C123  C     C_R   0.294247 0.461102 0.450263 -0.139798
C124  C     C_R   0.713099 0.468500 0.548288 -0.143861
C125  C     C_R   0.791010 0.987091 0.400566 -0.116342
C126  C     C_R   0.215437 0.997618 0.597261 -0.096304
C127  C     C_R   0.291010 0.487092 0.400567 -0.116341
C128  C     C_R   0.715436 0.497614 0.597261 -0.096299
C129  C     C_R   0.775405 0.792456 0.543092 -0.094235
C130  C     C_R   0.190390 0.851321 0.457798 -0.092994
C131  C     C_R   0.275410 0.292457 0.543092 -0.094236
C132  C     C_R   0.690388 0.351319 0.457798 -0.092996
C133  C     C_R   0.719788 0.344032 0.322927 0.560437
C134  C     C_R   0.279122 0.346334 0.678017 0.568472
C135  C     C_R   0.219788 0.844032 0.322927 0.560438
C136  C     C_R   0.779123 0.846334 0.678017 0.568472
C137  C     C_R   0.783257 0.781127 0.593740 0.384169
C138  C     C_R   0.181541 0.850642 0.407231 0.374940
C139  C     C_R   0.283262 0.281129 0.593740 0.384174
C140  C     C_R   0.681540 0.350641 0.407231 0.374940
C141  C     C_R   0.745149 0.954479 0.607045 -0.189334
C142  C     C_R   0.287446 0.875502 0.395149 -0.188569
C143  C     C_R   0.245143 0.454474 0.607045 -0.189338
C144  C     C_R   0.787445 0.375498 0.395150 -0.188569
C145  C     C_R   0.737228 0.965657 0.555980 -0.133424
C146  C     C_R   0.295717 0.881831 0.446426 -0.138474
C147  C     C_R   0.237222 0.465651 0.555980 -0.133423
C148  C     C_R   0.795716 0.381827 0.446427 -0.138473
C149  C     C_R   0.752377 0.884393 0.524232 -0.034001
C150  C     C_R   0.246944 0.869651 0.477732 -0.038574
C151  C     C_R   0.252377 0.384391 0.524232 -0.034003
C152  C     C_R   0.746943 0.369647 0.477732 -0.038574
C153  C     C_R   0.768097 0.862040 0.625741 0.060363
C154  C     C_R   0.230014 0.862457 0.375414 0.040005
C155  C     C_R   0.268098 0.362039 0.625741 0.060366
C156  C     C_R   0.730013 0.362456 0.375414 0.040004
C157  C     C_R   0.554911 0.158494 0.321761 0.601003
C158  C     C_R   0.445542 0.159027 0.678265 0.596969
C159  C     C_R   0.054911 0.658494 0.321761 0.601002
C160  C     C_R   0.945542 0.659027 0.678265 0.596965
C161  C     C_R   0.731875 0.002252 0.323093 0.547168
C162  C     C_R   0.268039 0.001754 0.677293 0.590545
C163  C     C_R   0.231875 0.502252 0.323093 0.547169
C164  C     C_R   0.768038 0.501754 0.677293 0.590549
C165  C     C_R   0.511777 0.069407 0.103699 -0.125275
C166  C     C_R   0.488136 0.069200 0.896416 -0.126594
C167  C     C_R   0.011777 0.569407 0.103699 -0.125275
C168  C     C_R   0.988136 0.569200 0.896416 -0.126594
C169  C     C_R   0.505107 0.066588 0.052096 0.004665
C170  C     C_R   0.494868 0.066481 0.948023 0.004976
C171  C     C_R   0.005106 0.566588 0.052096 0.004665
C172  C     C_R   0.994868 0.566481 0.948023 0.004976
C173  C     C_R   0.497945 0.971536 0.973944 0.138361
C174  C     C_R   0.501915 0.971591 0.026346 0.138334
C175  C     C_R   0.997945 0.471536 0.973944 0.138361
C176  C     C_R   0.001915 0.471591 0.026346 0.138334
Cr1   Cr    Cr6+3 0.756570 0.170940 0.251190 1.032069
Cr2   Cr    Cr6+3 0.243430 0.170940 0.748810 1.042140
Cr3   Cr    Cr6+3 0.256570 0.670940 0.251190 1.032069
Cr4   Cr    Cr6+3 0.743430 0.670940 0.748810 1.042141
Cr5   Cr    Cr6+3 0.623740 0.299110 0.249580 1.091425
Cr6   Cr    Cr6+3 0.376260 0.299110 0.750420 1.088424
Cr7   Cr    Cr6+3 0.123740 0.799110 0.249580 1.091425
Cr8   Cr    Cr6+3 0.876260 0.799110 0.750420 1.088423
Cr9   Cr    Cr6+3 0.625990 0.036240 0.250480 1.017341
Cr10  Cr    Cr6+3 0.374010 0.036240 0.749520 1.025747
Cr11  Cr    Cr6+3 0.125990 0.536240 0.250480 1.017341
Cr12  Cr    Cr6+3 0.874010 0.536240 0.749520 1.025746
H1    H     H_    0.487739 0.997923 0.875677 0.170036
H2    H     H_    0.512018 0.998166 0.124561 0.171530
H3    H     H_    0.987739 0.497923 0.875677 0.170036
H4    H     H_    0.012018 0.498166 0.124561 0.171530
H5    H     H_    0.841843 0.980447 0.878211 0.126101
H6    H     H_    0.157811 0.979876 0.121528 0.127289
H7    H     H_    0.341843 0.480447 0.878211 0.126101
H8    H     H_    0.657811 0.479877 0.121528 0.127289
H9    H     H_    0.652818 0.992092 0.021479 0.120366
H10   H     H_    0.346983 0.992880 0.978518 0.120952
H11   H     H_    0.152818 0.492091 0.021479 0.120366
H12   H     H_    0.846983 0.492880 0.978518 0.120952
H13   H     H_    0.646069 0.024015 0.110063 0.133160
H14   H     H_    0.353770 0.024678 0.889896 0.134529
H15   H     H_    0.146069 0.524015 0.110063 0.133160
H16   H     H_    0.853770 0.524678 0.889896 0.134529
H17   H     H_    0.517078 0.011553 0.536332 0.112151
H18   H     H_    0.593196 0.072948 0.483279 0.115145
H19   H     H_    0.017076 0.511552 0.536332 0.112151
H20   H     H_    0.093194 0.572943 0.483279 0.115144
H21   H     H_    0.490043 0.004247 0.622716 0.137254
H22   H     H_    0.609296 0.058706 0.394951 0.131212
H23   H     H_    0.990041 0.504246 0.622716 0.137256
H24   H     H_    0.109293 0.558701 0.394950 0.131213
H25   H     H_    0.449466 0.287021 0.455497 0.129034
H26   H     H_    0.492712 0.341682 0.535860 0.132528
H27   H     H_    0.949469 0.787025 0.455498 0.129033
H28   H     H_    0.992715 0.841682 0.535861 0.132528
H29   H     H_    0.663866 0.858050 0.368634 0.142687
H30   H     H_    0.326460 0.838871 0.638033 0.123852
H31   H     H_    0.163866 0.358048 0.368633 0.142686
H32   H     H_    0.826460 0.338870 0.638034 0.123851
H33   H     H_    0.788504 0.730776 0.518486 0.137302
H34   H     H_    0.152424 0.841738 0.481651 0.137098
H35   H     H_    0.288512 0.230780 0.518485 0.137302
H36   H     H_    0.652423 0.341736 0.481651 0.137098
H37   H     H_    0.720394 0.037761 0.541062 0.131792
H38   H     H_    0.339479 0.898544 0.461498 0.138016
H39   H     H_    0.220385 0.537752 0.541062 0.131791
H40   H     H_    0.839478 0.398539 0.461500 0.138016
H41   H     H_    0.734050 0.017285 0.631650 0.115707
H42   H     H_    0.325259 0.882375 0.371009 0.127959
H43   H     H_    0.234041 0.517277 0.631650 0.115704
H44   H     H_    0.825259 0.382371 0.371010 0.127959
H45   H     H_    0.830075 0.991972 0.473105 0.130852
H46   H     H_    0.182004 0.007830 0.523667 0.119605
H47   H     H_    0.330074 0.491973 0.473105 0.130852
H48   H     H_    0.682001 0.507824 0.523668 0.119605
H49   H     H_    0.824217 0.039010 0.386077 0.155755
H50   H     H_    0.186601 0.059485 0.609091 0.151142
H51   H     H_    0.324216 0.539012 0.386077 0.155755
H52   H     H_    0.686599 0.559481 0.609092 0.151144
H53   H     H_    0.471158 0.327696 0.878052 0.122850
H54   H     H_    0.529234 0.327842 0.121610 0.124510
H55   H     H_    0.971158 0.827696 0.878052 0.122850
H56   H     H_    0.029235 0.827842 0.121610 0.124510
H57   H     H_    0.491537 0.422056 0.954862 0.100287
H58   H     H_    0.509026 0.422122 0.044610 0.100744
H59   H     H_    0.991538 0.922056 0.954862 0.100287
H60   H     H_    0.009026 0.922122 0.044610 0.100744
H61   H     H_    0.825641 0.915051 0.132467 0.120777
H62   H     H_    0.174599 0.913887 0.867482 0.114546
H63   H     H_    0.325641 0.415052 0.132467 0.120777
H64   H     H_    0.674599 0.413887 0.867482 0.114546
H65   H     H_    0.666597 0.837618 0.963301 0.099996
H66   H     H_    0.333641 0.838372 0.036914 0.100089
H67   H     H_    0.166597 0.337617 0.963301 0.099997
H68   H     H_    0.833640 0.338372 0.036914 0.100089
H69   H     H_    0.680607 0.799770 0.875509 0.138783
H70   H     H_    0.319636 0.800705 0.124757 0.140242
H71   H     H_    0.180607 0.299769 0.875509 0.138783
H72   H     H_    0.819636 0.300704 0.124757 0.140242
H73   H     H_    0.832180 0.880497 0.042953 0.140056
H74   H     H_    0.168054 0.879356 0.957044 0.139384
H75   H     H_    0.332180 0.380497 0.042953 0.140056
H76   H     H_    0.668054 0.379357 0.957044 0.139383
O1    O     O_R   0.769900 0.064540 0.196060 -0.506937
O2    O     O_R   0.230100 0.064540 0.803940 -0.515341
O3    O     O_R   0.269900 0.564540 0.196060 -0.506937
O4    O     O_R   0.730100 0.564540 0.803940 -0.515341
O5    O     O_R   0.574760 0.239320 0.300850 -0.414310
O6    O     O_R   0.425240 0.239320 0.699150 -0.415345
O7    O     O_R   0.074760 0.739320 0.300850 -0.414308
O8    O     O_R   0.925240 0.739320 0.699150 -0.415347
O9    O     O_R   0.566290 0.069580 0.305400 -0.544930
O10   O     O_R   0.433710 0.069580 0.694600 -0.531472
O11   O     O_R   0.066290 0.569580 0.305400 -0.544931
O12   O     O_R   0.933710 0.569580 0.694600 -0.531472
O13   O     O_R   0.680760 0.993330 0.302620 -0.512132
O14   O     O_R   0.319240 0.993330 0.697380 -0.491505
O15   O     O_R   0.180760 0.493330 0.302620 -0.512132
O16   O     O_R   0.819240 0.493330 0.697380 -0.491505
O17   O     O_3   0.668770 0.168760 0.250420 -0.260844
O18   O     O_3   0.331230 0.168760 0.749580 -0.241755
O19   O     O_3   0.168770 0.668760 0.250420 -0.260844
O20   O     O_3   0.831230 0.668760 0.749580 -0.241756
O21   O     O_R   0.750800 0.274080 0.199250 -0.502292
O22   O     O_R   0.249200 0.274080 0.800750 -0.507960
O23   O     O_R   0.250800 0.774080 0.199250 -0.502292
O24   O     O_R   0.749200 0.774080 0.800750 -0.507960
O25   O     O_R   0.669990 0.371670 0.194150 -0.530146
O26   O     O_R   0.330010 0.371670 0.805850 -0.532471
O27   O     O_R   0.169990 0.871670 0.194150 -0.530146
O28   O     O_R   0.830010 0.871670 0.805850 -0.532471
O29   O     O_R   0.574600 0.238480 0.197800 -0.501456
O30   O     O_R   0.425400 0.238480 0.802200 -0.507086
O31   O     O_R   0.074600 0.738480 0.197800 -0.501456
O32   O     O_R   0.925400 0.738480 0.802200 -0.507086
O33   O     O_R   0.566130 0.068680 0.194240 -0.529357
O34   O     O_R   0.433870 0.068680 0.805760 -0.535039
O35   O     O_R   0.066130 0.568680 0.194240 -0.529357
O36   O     O_R   0.933870 0.568680 0.805760 -0.535039
O37   O     O_R   0.680610 0.992490 0.199570 -0.506057
O38   O     O_R   0.319390 0.992490 0.800430 -0.514003
O39   O     O_R   0.180610 0.492490 0.199570 -0.506057
O40   O     O_R   0.819390 0.492490 0.800430 -0.514003
O41   O     O_R   0.770060 0.065440 0.307230 -0.507496
O42   O     O_R   0.229940 0.065440 0.692770 -0.504192
O43   O     O_R   0.270060 0.565440 0.307230 -0.507496
O44   O     O_R   0.729940 0.565440 0.692770 -0.504189
O45   O     O_R   0.750960 0.274920 0.302300 -0.515018
O46   O     O_R   0.249040 0.274920 0.697700 -0.485617
O47   O     O_R   0.250960 0.774920 0.302300 -0.515018
O48   O     O_R   0.749040 0.774920 0.697700 -0.485612
O49   O     O_R   0.670160 0.372580 0.305320 -0.443598
O50   O     O_R   0.329840 0.372580 0.694680 -0.465218
O51   O     O_R   0.170160 0.872580 0.305320 -0.443598
O52   O     O_R   0.829840 0.872580 0.694680 -0.465222
F1    F     F_    0.462169 0.289916 0.359322 -0.625814
F2    F     F_    0.460854 0.353380 0.627254 -0.618799
F3    F     F_    0.962172 0.789921 0.359323 -0.625813
F4    F     F_    0.960857 0.853380 0.627254 -0.618801
F5    F     F_    0.807669 0.692546 0.611615 -0.636420
F6    F     F_    0.125445 0.835838 0.389619 -0.623888
F7    F     F_    0.307677 0.192552 0.611615 -0.636418
F8    F     F_    0.625444 0.335839 0.389619 -0.623888
N1    N     N_2   0.499697 0.876369 0.947326 -0.534058
H77   H     H_    0.528316 0.822120 0.962119 0.254057
C177  C     C_3   0.442473 0.833060 0.933691 -0.322658
H78   H     H_    0.414378 0.822738 0.966757 0.127463
H79   H     H_    0.448852 0.756779 0.915899 0.139302
H80   H     H_    0.419178 0.883389 0.906626 0.161103
N2    N     N_2   0.500051 0.876490 0.053133 -0.533325
H81   H     H_    0.471367 0.822323 0.038438 0.254355
C178  C     C_3   0.557224 0.832983 0.066847 -0.321470
H82   H     H_    0.585307 0.822433 0.033799 0.126874
H83   H     H_    0.550751 0.756783 0.084791 0.141003
H84   H     H_    0.580579 0.883293 0.093815 0.161649
N3    N     N_2   0.999697 0.376369 0.947326 -0.534058
H85   H     H_    0.028316 0.322120 0.962119 0.254057
C179  C     C_3   0.942473 0.333061 0.933691 -0.322658
H86   H     H_    0.948851 0.256779 0.915899 0.139302
H87   H     H_    0.919177 0.383389 0.906625 0.161103
H88   H     H_    0.914378 0.322739 0.966757 0.127462
N4    N     N_2   0.000050 0.376490 0.053133 -0.533325
H89   H     H_    0.971367 0.322323 0.038438 0.254355
C180  C     C_3   0.057223 0.332982 0.066847 -0.321469
H90   H     H_    0.085305 0.322428 0.033799 0.126872
H91   H     H_    0.050749 0.256784 0.084792 0.141005
H92   H     H_    0.080579 0.383294 0.093814 0.161649
N5    N     N_2   0.660786 0.789734 0.460769 -0.510810
H93   H     H_    0.675813 0.742720 0.489114 0.253806
C181  C     C_3   0.604462 0.837596 0.471563 -0.311219
H94   H     H_    0.572256 0.777606 0.483024 0.147751
H95   H     H_    0.586055 0.877260 0.438193 0.153810
H96   H     H_    0.610109 0.893633 0.502378 0.132488
N6    N     N_2   0.328961 0.759885 0.546936 -0.521206
H97   H     H_    0.315892 0.724625 0.514333 0.255649
C182  C     C_3   0.392470 0.776704 0.550874 -0.300738
H98   H     H_    0.416260 0.707669 0.537105 0.149725
H99   H     H_    0.406396 0.789213 0.590039 0.156705
H100  H     H_    0.405561 0.844454 0.528308 0.135204
N7    N     N_2   0.160787 0.289731 0.460768 -0.510810
H101  H     H_    0.175814 0.242719 0.489114 0.253807
C183  C     C_3   0.104461 0.337590 0.471561 -0.311218
H102  H     H_    0.072256 0.277598 0.483022 0.147752
H103  H     H_    0.086055 0.377252 0.438191 0.153809
H104  H     H_    0.110108 0.393628 0.502375 0.132487
N8    N     N_2   0.828960 0.259881 0.546937 -0.521208
H105  H     H_    0.815891 0.224621 0.514334 0.255648
C184  C     C_3   0.892468 0.276699 0.550875 -0.300738
H106  H     H_    0.916258 0.207664 0.537105 0.149725
H107  H     H_    0.906395 0.289208 0.590040 0.156705
H108  H     H_    0.905560 0.344449 0.528310 0.135203
N9    N     N_2   0.839742 0.029745 0.972491 -0.528340
H109  H     H_    0.881570 0.026732 0.957409 0.237296
C185  C     C_3   0.821397 0.134284 0.982730 -0.303434
H110  H     H_    0.856598 0.172960 0.005121 0.128430
H111  H     H_    0.779700 0.135265 0.004204 0.176692
H112  H     H_    0.814632 0.177709 0.947536 0.141387
N10   N     N_2   0.159850 0.028808 0.027151 -0.528350
H113  H     H_    0.118013 0.025387 0.042197 0.237303
C186  C     C_3   0.177812 0.133517 0.016725 -0.302954
H114  H     H_    0.142456 0.171806 0.994286 0.127820
H115  H     H_    0.219493 0.134882 0.995233 0.177109
H116  H     H_    0.184445 0.177069 0.051841 0.142483
N11   N     N_2   0.339742 0.529744 0.972491 -0.528339
H117  H     H_    0.381570 0.526733 0.957409 0.237295
C187  C     C_3   0.321397 0.634284 0.982730 -0.303433
H118  H     H_    0.356598 0.672960 0.005121 0.128430
H119  H     H_    0.279700 0.635265 0.004204 0.176692
H120  H     H_    0.314632 0.677709 0.947536 0.141387
N12   N     N_2   0.659850 0.528809 0.027151 -0.528350
H121  H     H_    0.618013 0.525388 0.042198 0.237303
C188  C     C_3   0.677812 0.633518 0.016726 -0.302955
H122  H     H_    0.642456 0.671807 0.994286 0.127820
H123  H     H_    0.719493 0.634883 0.995233 0.177109
H124  H     H_    0.684445 0.677069 0.051842 0.142483

loop_
_geom_bond_atom_site_label_1
_geom_bond_atom_site_label_2
_ccdc_geom_bond_type
C99   C103  A    
C7    C168  A    
C182  H98   S    
C55   C59   A    
C142  C146  A    
C77   C101  A    
C19   C20   A    
C187  H120  S    
C53   C69   A    
C165  C169  A    
C38   C70   S    
N3    H85   S    
C178  H82   S    
C108  C164  S    
Cr9   O37   S    
Cr10  O34   S    
C37   C69   S    
C26   C50   A    
C95   C99   A    
C29   C33   A    
C100  C104  A    
C23   H60   S    
C3    C74   S    
C9    C13   A    
C146  C150  A    
C131  C151  A    
C12   C16   A    
C56   C72   A    
C169  C174  A    
C133  O49   A    
Cr8   O28   S    
C172  C175  A    
C141  C145  A    
C184  H108  S    
C138  C154  A    
C6    C165  A    
C21   C22   A    
C92   O40   A    
C140  F8    S    
C91   O3    A    
C41   C49   A    
C50   H14   S    
C25   C29   A    
C160  O8    A    
C27   C31   A    
C84   C88   A    
C42   H10   S    
C62   C66   A    
C66   N10   S    
C167  C171  A    
C98   C102  A    
C145  H37   S    
C60   C76   A    
C15   C19   A    
Cr1   O1    S    
C78   C82   A    
C134  C155  S    
C54   C70   A    
C16   C20   A    
C165  H2    S    
C31   H63   S    
C180  H92   S    
C134  O46   A    
C135  O51   A    
C174  N2    S    
C122  H46   S    
C182  H100  S    
C119  C123  A    
C138  F6    S    
C186  H114  S    
C132  C152  A    
C128  H52   S    
C62   H6    S    
C187  H118  S    
C130  C138  A    
C123  C127  A    
Cr12  O16   S    
C178  H84   S    
C46   O34   A    
Cr9   O13   S    
Cr6   O18   S    
C185  H110  S    
Cr10  O10   S    
Cr11  O15   S    
C26   C90   S    
C188  H122  S    
Cr11  O39   S    
C105  C125  A    
C7    C48   S    
C60   H72   S    
C8    C47   S    
Cr7   O27   S    
C175  C176  A    
C157  O9    A    
C136  C153  S    
Cr1   O21   S    
C66   C70   A    
C163  O15   A    
Cr2   O18   S    
C31   C35   A    
C57   H69   S    
C55   H67   S    
C176  N4    S    
C107  C127  A    
C92   O4    A    
C61   C65   A    
C129  C137  A    
C39   C71   S    
C117  C149  S    
C129  C149  A    
C48   O36   A    
C55   C71   A    
C2    C75   S    
C29   H61   S    
N11   C187  S    
Cr12  O20   S    
C122  C126  A    
N5    H93   S    
C181  H94   S    
C148  H40   S    
C43   C51   A    
C6    C9    A    
C181  H96   S    
C82   F2    S    
Cr7   O19   S    
C58   H70   S    
Cr1   O45   S    
C64   C68   A    
Cr5   O29   S    
Cr2   O42   S    
Cr3   O47   S    
C175  N3    S    
C137  F5    S    
C142  H42   S    
Cr11  O19   S    
C118  C122  A    
Cr3   O23   S    
N1    C177  S    
C85   C93   A    
C78   C158  S    
C87   C95   A    
C130  C150  A    
C186  H116  S    
C23   C24   A    
C27   C91   S    
C97   H18   S    
C47   O31   A    
C110  C114  A    
C67   C71   A    
C48   O32   A    
C89   O37   A    
C44   C52   A    
C91   O39   A    
C54   H66   S    
C79   C103  A    
Cr10  O38   S    
C10   H53   S    
C111  H31   S    
Cr11  O35   S    
Cr4   O4    S    
C27   C51   A    
Cr5   O5    S    
C7    C12   A    
C188  H124  S    
C49   H13   S    
Cr7   O7    S    
C30   C34   A    
C41   H9    S    
C10   C14   A    
C177  H79   S    
C147  H39   S    
C1    O25   A    
C108  C128  A    
C116  C120  A    
C88   C96   A    
C124  H48   S    
C144  C156  A    
C147  C151  A    
C86   H26   S    
C121  C125  A    
C143  C155  A    
C139  C155  A    
C157  O5    A    
C17   C18   A    
C112  H32   S    
C5    C166  A    
C142  C154  A    
C4    C73   S    
C42   C50   A    
C113  C117  A    
N6    C182  S    
C107  C163  S    
C26   C30   A    
C115  C119  A    
C56   H68   S    
C183  H104  S    
C105  C161  S    
C180  H91   S    
C61   H5    S    
C112  C116  A    
C58   C74   A    
C185  H112  S    
N12   C188  S    
Cr5   O49   S    
C40   C72   S    
C1    C76   S    
C107  C111  A    
C148  C152  A    
C115  N7    S    
C187  H119  S    
Cr2   O2    S    
C102  H21   S    
C44   H12   S    
C21   H58   S    
C135  O47   A    
C134  O50   A    
C171  C176  A    
C13   C17   A    
C166  H1    S    
C14   C22   A    
N4    C180  S    
C161  O13   A    
C13   C21   A    
C136  O48   A    
C67   N11   S    
C63   C75   A    
C64   H8    S    
C89   O1    A    
C37   C41   A    
C109  H29   S    
Cr12  O36   S    
C40   C44   A    
C179  H88   S    
C24   H59   S    
C131  H35   S    
C46   O30   A    
C143  H43   S    
Cr9   O17   S    
C81   C85   A    
Cr10  O14   S    
C184  H107  S    
Cr11  O11   S    
C83   C87   A    
Cr4   O44   S    
C127  H51   S    
C6    C45   S    
C93   C97   A    
C78   C102  A    
C133  C156  S    
Cr7   O31   S    
C80   C84   A    
Cr5   O25   S    
C1    O21   A    
N10   H113  S    
Cr2   O22   S    
C3    O23   A    
N7    C183  S    
Cr3   O19   S    
C135  C154  S    
C80   C104  A    
C84   F4    S    
N9    C185  S    
C79   C159  S    
C80   C160  S    
C94   C98   A    
C141  H41   S    
C33   H73   S    
C35   H75   S    
C118  C150  S    
C105  C109  A    
N8    H105  S    
C183  H102  S    
C160  O12   A    
Cr4   O20   S    
C124  C128  A    
C11   C15   A    
C18   C170  A    
C182  H99   S    
C159  O7    A    
C59   H71   S    
Cr2   O46   S    
C53   H65   S    
Cr6   O30   S    
Cr3   O43   S    
C133  O45   A    
N3    C179  S    
C100  H19   S    
C51   H15   S    
C178  H83   S    
C161  O41   A    
Cr8   O8    S    
C130  H34   S    
C53   C57   A    
C146  H38   S    
C61   C73   A    
C82   C86   A    
C33   C37   A    
C108  C112  A    
C68   C72   A    
C52   H16   S    
C45   O33   A    
C47   O35   A    
N2    H81   S    
C4    O28   A    
C8    C167  A    
C22   H57   S    
C90   O38   A    
C179  H86   S    
C28   C32   A    
N8    C184  S    
C123  H47   S    
Cr6   O6    S    
C139  F7    S    
C121  H45   S    
C63   H7    S    
C32   C36   A    
C125  H49   S    
N11   H117  S    
C65   N9    S    
C132  H36   S    
C144  H44   S    
Cr8   O52   S    
C181  H95   S    
C132  C140  A    
C106  C126  A    
C25   C89   S    
C158  O6    A    
C99   H20   S    
C177  H78   S    
C79   C83   A    
C2    O26   A    
C65   C69   A    
Cr9   O33   S    
C106  C162  S    
N1    H77   S    
C25   C49   A    
C56   C60   A    
C168  C172  A    
Cr6   O50   S    
C186  H115  S    
C87   H27   S    
C62   C74   A    
C145  C149  A    
C170  C173  A    
Cr3   O3    S    
N4    H89   S    
C93   C94   S    
C14   C18   A    
C35   C39   A    
C95   C96   S    
C3    O27   A    
C144  C148  A    
C141  C153  A    
Cr8   O32   S    
C162  O14   A    
N12   H121  S    
C173  C174  A    
C136  O52   A    
C143  C147  A    
C167  H4    S    
C188  H123  S    
C4    O24   A    
C168  H3    S    
C36   H76   S    
C90   O2    A    
C19   C171  A    
C38   C42   A    
Cr12  O40   S    
C17   C169  A    
N10   C186  S    
C57   C73   A    
C96   C100  A    
C117  C121  A    
C86   C94   A    
C106  C110  A    
C68   N12   S    
N6    H97   S    
C164  O44   A    
C98   H17   S    
C77   C81   A    
Cr10  O18   S    
Cr8   O20   S    
C2    O22   A    
C15   C23   A    
N5    C181  S    
C11   H56   S    
C183  H103  S    
C9    H54   S    
C158  O10   A    
C185  H111  S    
C119  C151  S    
Cr9   O9    S    
C63   C67   A    
C120  C152  S    
C34   H74   S    
C137  C153  A    
Cr4   O48   S    
C36   C40   A    
C131  C139  A    
C129  H33   S    
C39   C43   A    
Cr12  O12   S    
C114  N6    S    
C30   H62   S    
Cr4   O24   S    
Cr5   O17   S    
C85   H25   S    
C12   H55   S    
C64   C76   A    
C28   C92   S    
Cr6   O26   S    
N2    C178  S    
C114  C118  A    
C5    C46   S    
Cr1   O17   S    
C179  H87   S    
C140  C156  A    
Cr7   O51   S    
C113  N5    S    
C162  O42   A    
C173  N1    S    
C59   C75   A    
C184  H106  S    
C54   C58   A    
C88   H28   S    
C20   C172  A    
C34   C38   A    
C45   O29   A    
C103  H24   S    
C177  H80   S    
C43   H11   S    
C109  C113  A    
C101  H22   S    
N7    H101  S    
C32   H64   S    
C159  O11   A    
C5    C10   A    
N9    H109  S    
C28   C52   A    
C116  N8    S    
C81   F1    S    
C8    C11   A    
C83   F3    S    
C166  C170  A    
Cr1   O41   S    
C163  O43   A    
C110  H30   S    
C16   C24   A    
C164  O16   A    
C111  C115  A    
C104  H23   S    
C180  H90   S    
C97   C101  A    
C120  C124  A    
C77   C157  S    
C126  H50   S    
