data_mof_unit_pretest_915.cif
_audit_creation_date              2012-12-11T16:18:08-0500
_audit_creation_method            fapswitch 2.2
_symmetry_space_group_name_H-M    P1
_symmetry_Int_Tables_number       1
_space_group_crystal_system       triclinic
_cell_length_a                    14.05031
_cell_length_b                    14.055195
_cell_length_c                    30.056476
_cell_angle_alpha                 97.109561
_cell_angle_beta                  96.943023
_cell_angle_gamma                 61.249183
_cell_volume                      5150.94705505

loop_
_atom_site_label
_atom_site_type_symbol
_atom_type_description
_atom_site_fract_x
_atom_site_fract_y
_atom_site_fract_z
_atom_type_partial_charge
C1    C     C_R   0.386057 0.710237 0.442060 0.542829
C2    C     C_R   0.773203 0.270319 0.376458 -0.144516
C3    C     C_3   0.024518 0.001444 0.804701 -0.358481
C4    C     C_3   0.616403 0.657458 0.704967 -0.287210
C5    C     C_3   0.972489 0.474311 0.131290 0.012296
C6    C     C_3   0.996726 0.554589 0.111828 -0.350656
C7    C     C_3   0.952342 0.445244 0.317513 -0.016533
C8    C     C_3   0.974490 0.515240 0.289888 -0.380370
C9    C     C_R   0.797872 0.247314 0.331648 -0.165415
C10   C     C_R   0.398754 0.381047 0.426517 0.541014
C11   C     C_R   0.817303 0.318635 0.310558 0.038654
C12   C     C_R   0.821988 0.408166 0.335201 0.258424
C13   C     C_R   0.794542 0.432574 0.379907 -0.122007
C14   C     C_R   0.836463 0.391578 0.161865 -0.141606
C15   C     C_R   0.870024 0.386293 0.119289 0.248092
C16   C     C_R   0.879448 0.207869 0.102968 -0.167006
C17   C     C_R   0.849144 0.212244 0.146199 0.140304
C18   C     C_R   0.339429 0.238262 0.223338 -0.107900
C19   C     C_R   0.832358 0.303057 0.176109 0.015994
C20   C     C_1   0.825241 0.302279 0.223049 0.011581
C21   C     C_1   0.822372 0.306339 0.262914 0.010822
C22   C     C_R   0.709985 0.405376 0.442346 0.542714
C23   C     C_R   0.894026 0.292322 0.089592 0.000894
C24   C     C_R   0.366649 0.765495 0.400859 -0.023962
C25   C     C_R   0.449294 0.781269 0.386465 -0.121237
C26   C     C_R   0.445455 0.803977 0.341861 0.283058
C27   C     C_R   0.354879 0.816865 0.312783 0.048179
C28   C     C_R   0.268099 0.810904 0.328152 -0.175132
C29   C     C_R   0.347434 0.246554 0.270231 -0.107833
C30   C     C_R   0.273795 0.785319 0.371955 -0.146211
C31   C     C_R   0.255569 0.836583 0.153388 -0.155528
C32   C     C_R   0.232953 0.865745 0.109305 -0.138846
C33   C     C_R   0.394725 0.888475 0.114989 -0.119763
C34   C     C_R   0.389629 0.711676 0.568178 0.543655
C35   C     C_R   0.418855 0.857663 0.159246 0.152277
C36   C     C_R   0.345343 0.836999 0.178899 0.058017
C37   C     C_1   0.352752 0.829260 0.226251 0.004880
C38   C     C_1   0.354746 0.824883 0.265904 0.016268
C39   C     C_R   0.299445 0.896955 0.090449 -0.004047
C40   C     C_R   0.320592 0.347523 0.293692 0.028269
C41   C     C_R   0.367919 0.368314 0.594759 -0.036610
C42   C     C_R   0.425089 0.269111 0.615899 0.276512
C43   C     C_R   0.415254 0.268542 0.661866 0.292300
C44   C     C_R   0.346627 0.366045 0.685947 -0.013886
C45   C     C_R   0.280641 0.459933 0.663764 -0.188067
C46   C     C_R   0.402436 0.383599 0.552800 0.544339
C47   C     C_R   0.290663 0.461078 0.618481 -0.190872
C48   C     C_R   0.256620 0.437850 0.846519 0.180268
C49   C     C_R   0.242426 0.413488 0.888732 0.155630
C50   C     C_R   0.382315 0.225943 0.873949 -0.167666
C51   C     C_R   0.305070 0.330763 0.199813 0.030266
C52   C     C_R   0.397341 0.250611 0.833117 -0.170692
C53   C     C_R   0.333094 0.354549 0.818649 -0.007713
C54   C     C_1   0.338458 0.367932 0.772840 -0.035242
C55   C     C_1   0.342577 0.370036 0.733437 -0.013181
C56   C     C_R   0.302416 0.304950 0.901480 -0.015256
C57   C     C_1   0.758960 0.377126 0.612901 -0.006858
C58   C     C_R   0.712152 0.408102 0.568697 0.545333
C59   C     C_R   0.898287 0.348722 0.722370 0.295468
C60   C     C_R   0.912491 0.342522 0.769189 0.136872
C61   C     C_R   0.766144 0.294255 0.766157 0.107052
C62   C     C_1   0.297060 0.320041 0.151682 -0.077784
C63   C     C_R   0.750595 0.303838 0.719611 -0.165339
C64   C     C_R   0.814953 0.332274 0.697861 -0.038781
C65   C     C_R   0.847199 0.313996 0.791126 0.012183
C66   C     C_1   0.870177 0.298531 0.838613 -0.032198
C67   C     C_1   0.787692 0.354619 0.651273 -0.036108
C68   C     C_1   0.900592 0.285256 0.877662 -0.030690
C69   C     C_1   0.376001 0.759373 0.613336 -0.014925
C70   C     C_1   0.363959 0.363438 0.381092 -0.016623
C71   C     C_R   0.271276 0.907277 0.716375 -0.148695
C72   C     C_R   0.253861 0.926784 0.762329 0.281688
C73   C     C_1   0.340881 0.354375 0.341544 -0.064185
C74   C     C_R   0.419363 0.758594 0.776904 -0.160469
C75   C     C_R   0.436047 0.738000 0.730809 0.145145
C76   C     C_R   0.360466 0.812724 0.700452 0.011844
C77   C     C_R   0.329146 0.852641 0.792649 0.022191
C78   C     C_1   0.313428 0.874947 0.839987 -0.021740
C79   C     C_1   0.368244 0.788000 0.652730 -0.035808
C80   C     C_1   0.293810 0.902951 0.878768 -0.008561
C81   C     C_R   0.951064 0.273128 0.048510 0.558835
C82   C     C_R   0.284530 0.440454 0.270182 -0.116160
C83   C     C_R   0.275105 0.270216 0.065483 0.541396
C84   C     C_1   0.288919 0.302665 0.111634 -0.031010
C85   C     C_R   0.260700 0.954064 0.048879 0.543920
C86   C     C_R   0.951164 0.269667 0.922373 0.542633
C87   C     C_R   0.277523 0.267022 0.940086 0.540152
C88   C     C_R   0.261721 0.950668 0.922921 0.545548
C89   C     C_R   0.276267 0.432199 0.223213 -0.116028
C90   C     C_3   0.733925 0.141200 0.164584 -0.300590
C91   C     C_3   0.599621 0.747960 0.192651 -0.288685
C92   C     C_3   0.629306 0.722848 0.330574 0.009717
C93   C     C_3   0.709296 0.750581 0.360607 -0.376580
C94   C     C_3   0.058706 0.531665 0.912568 -0.249534
C95   C     C_R   0.765714 0.366182 0.400274 -0.023758
C96   C     C_3   0.099212 0.567010 0.803970 -0.288469
C97   C     C_3   0.440704 0.132000 0.563339 0.002197
C98   C     C_3   0.518999 0.016775 0.546300 -0.353958
C99   C     C_3   0.424201 0.119954 0.689151 -0.004565
C100  C     C_3   0.500383 0.013879 0.710433 -0.365301
C101  C     C_3   0.036465 0.292015 0.676129 -0.007193
C102  C     C_3   0.127814 0.315286 0.668406 -0.369817
C103  C     C_3   0.097138 0.278212 0.801351 -0.268055
C104  C     C_3   0.609966 0.356563 0.809058 -0.293558
C105  C     C_3   0.067621 0.022096 0.764825 -0.027539
Cr1   Cr    Cr6+3 0.581000 0.584320 0.508140 1.011329
Cr2   Cr    Cr6+3 0.339110 0.576430 0.496080 1.012296
Cr3   Cr    Cr6+3 0.579910 0.339270 0.495810 1.036288
Cr4   Cr    Cr6+3 0.082090 0.079210 0.982490 1.017092
Cr5   Cr    Cr6+3 0.082460 0.324610 0.994920 1.003885
Cr6   Cr    Cr6+3 0.323630 0.087860 0.996130 1.016031
H1    H     H_    0.264792 0.518724 0.288154 0.109248
H2    H     H_    0.248661 0.504234 0.205249 0.103160
H3    H     H_    0.224996 0.534005 0.682007 0.132863
H4    H     H_    0.243770 0.537663 0.603128 0.158902
H5    H     H_    0.455764 0.186445 0.811625 0.131969
H6    H     H_    0.429971 0.142442 0.882723 0.152350
H7    H     H_    0.360991 0.159571 0.205402 0.122472
H8    H     H_    0.686043 0.291905 0.700542 0.153824
H9    H     H_    0.213882 0.965199 0.693097 0.101519
H10   H     H_    0.477098 0.701629 0.800416 0.106883
H11   H     H_    0.376636 0.174119 0.288120 0.128984
H12   H     H_    0.897079 0.135534 0.080655 0.129642
H13   H     H_    0.820199 0.462540 0.184948 0.117991
H14   H     H_    0.789434 0.506752 0.397534 0.128592
H15   H     H_    0.752244 0.217096 0.391338 0.142508
H16   H     H_    0.888917 0.049165 0.142472 0.242085
H17   H     H_    0.687194 0.155636 0.131312 0.143932
H18   H     H_    0.691116 0.212352 0.188659 0.164108
H19   H     H_    0.737374 0.068751 0.177410 0.136699
H20   H     H_    0.539260 0.904346 0.173470 0.239888
H21   H     H_    0.666437 0.754466 0.214298 0.140112
H22   H     H_    0.631983 0.702474 0.160272 0.151085
H23   H     H_    0.795798 0.177320 0.312824 0.121889
H24   H     H_    0.571252 0.702025 0.210106 0.163556
H25   H     H_    0.660677 0.694572 0.296627 0.175028
H26   H     H_    0.627250 0.652726 0.343452 0.136348
H27   H     H_    0.718670 0.814267 0.346078 0.156419
H28   H     H_    0.789906 0.677000 0.363445 0.130720
H29   H     H_    0.679712 0.780878 0.394740 0.137801
H30   H     H_    0.203670 0.492856 0.952176 0.243295
H31   H     H_    0.026855 0.534003 0.945004 0.139710
H32   H     H_    0.042282 0.474139 0.888251 0.142540
H33   H     H_    0.014215 0.614438 0.900313 0.149348
H34   H     H_    0.159359 0.870944 0.091151 0.134367
H35   H     H_    0.243602 0.572704 0.820382 0.244833
H36   H     H_    0.052972 0.655075 0.798479 0.135598
H37   H     H_    0.045851 0.544422 0.819383 0.164696
H38   H     H_    0.120871 0.520334 0.770853 0.157072
H39   H     H_    0.403423 0.182105 0.533969 0.132023
H40   H     H_    0.375312 0.128680 0.579655 0.092436
H41   H     H_    0.556280 0.964310 0.574911 0.158286
H42   H     H_    0.474530 0.982794 0.522247 0.090837
H43   H     H_    0.584275 0.017140 0.528956 0.162907
H44   H     H_    0.390124 0.099845 0.656176 0.119703
H45   H     H_    0.199335 0.819853 0.168425 0.107276
H46   H     H_    0.356911 0.169035 0.711603 0.123221
H47   H     H_    0.535538 0.030877 0.743658 0.151005
H48   H     H_    0.454799 0.970113 0.715231 0.105814
H49   H     H_    0.567322 0.961272 0.688317 0.161316
H50   H     H_    0.998071 0.280586 0.642812 0.134617
H51   H     H_    0.073033 0.214494 0.693065 0.112175
H52   H     H_    0.167937 0.326327 0.701282 0.159398
H53   H     H_    0.188591 0.246347 0.647876 0.069568
H54   H     H_    0.094919 0.390530 0.650470 0.168167
H55   H     H_    0.962145 0.418045 0.823170 0.232045
H56   H     H_    0.198367 0.820475 0.305534 0.111943
H57   H     H_    0.152858 0.307893 0.818810 0.142772
H58   H     H_    0.130491 0.235100 0.768910 0.183653
H59   H     H_    0.093950 0.220868 0.822697 0.176645
H60   H     H_    0.674953 0.215184 0.767352 0.265477
H61   H     H_    0.551934 0.411072 0.783472 0.141945
H62   H     H_    0.639661 0.403416 0.833928 0.155690
H63   H     H_    0.566516 0.326404 0.827088 0.155734
H64   H     H_    0.070950 0.962193 0.736146 0.115769
H65   H     H_    0.008433 0.103696 0.753652 0.148302
H66   H     H_    0.021848 0.059453 0.833782 0.180348
H67   H     H_    0.208582 0.774371 0.382173 0.141267
H68   H     H_    0.941124 0.012223 0.795550 0.114343
H69   H     H_    0.078261 0.917089 0.814443 0.150040
H70   H     H_    0.553570 0.577151 0.735047 0.247478
H71   H     H_    0.650075 0.685852 0.735995 0.135746
H72   H     H_    0.588897 0.718043 0.679503 0.158104
H73   H     H_    0.681934 0.579492 0.691133 0.170235
H74   H     H_    0.046021 0.392760 0.128933 0.143619
H75   H     H_    0.956746 0.501216 0.167261 0.106527
H76   H     H_    0.926177 0.637535 0.114771 0.143412
H77   H     H_    0.069342 0.555961 0.130487 0.085729
H78   H     H_    0.519720 0.769586 0.408914 0.124308
H79   H     H_    0.013201 0.530109 0.075849 0.176772
H80   H     H_    0.999476 0.358808 0.304194 0.139327
H81   H     H_    0.981289 0.454534 0.353150 0.127939
H82   H     H_    0.929909 0.602111 0.302451 0.145023
H83   H     H_    0.062975 0.489277 0.292522 0.113117
H84   H     H_    0.947628 0.506219 0.254039 0.145490
H85   H     H_    0.447642 0.910920 0.100681 0.123278
N1    N     N_2   0.843308 0.122168 0.160295 -0.513313
N2    N     N_2   0.512000 0.855882 0.184735 -0.507480
N3    N     N_2   0.173870 0.499303 0.918973 -0.484977
N4    N     N_2   0.196145 0.546166 0.833045 -0.491194
N5    N     N_2   0.990173 0.369590 0.794067 -0.500240
N6    N     N_2   0.699853 0.265166 0.787586 -0.508911
N7    N     N_2   0.527429 0.641195 0.715141 -0.505809
O1    O     O_R   0.688580 0.499770 0.460490 -0.522294
O2    O     O_R   0.346150 0.177650 0.050510 -0.507729
O3    O     O_R   0.314200 0.996600 0.036060 -0.502234
O4    O     O_R   0.480400 0.672610 0.462660 -0.505999
O5    O     O_R   0.168690 0.969990 0.933130 -0.506545
O6    O     O_R   0.991920 0.175870 0.937430 -0.492242
O7    O     O_R   0.974010 0.342590 0.941330 -0.521157
O8    O     O_R   0.182630 0.317940 0.955040 -0.497519
O9    O     O_R   0.347320 0.174720 0.953250 -0.516505
O10   O     O_R   0.315290 0.993890 0.945900 -0.495047
O11   O     O_3   0.162730 0.163890 0.991180 -0.242109
O12   O     O_R   0.348600 0.476260 0.536540 -0.511111
O13   O     O_R   0.315310 0.685650 0.451800 -0.514116
O14   O     O_R   0.346220 0.474990 0.446280 -0.497565
O15   O     O_R   0.492270 0.312460 0.441630 -0.512450
O16   O     O_R   0.669740 0.350480 0.455640 -0.500565
O17   O     O_R   0.691150 0.501150 0.557860 -0.506555
O18   O     O_R   0.482790 0.673890 0.552920 -0.494355
O19   O     O_R   0.317880 0.687030 0.549170 -0.511589
O20   O     O_3   0.527099 0.817593 0.326515 -0.560247
O21   O     O_3   0.498694 0.174290 0.593636 -0.509568
O22   O     O_3   0.482889 0.175498 0.683890 -0.532246
O23   O     O_R   0.494840 0.313840 0.539010 -0.466640
O24   O     O_3   0.959753 0.381490 0.701921 -0.535804
O25   O     O_3   0.167683 0.022316 0.778235 -0.585838
O26   O     O_3   0.880556 0.472409 0.107007 -0.538613
O27   O     O_3   0.839564 0.479727 0.314127 -0.590950
O28   O     O_R   0.672120 0.351750 0.545910 -0.489440
O29   O     O_3   0.500010 0.500010 0.500010 -0.241979
O30   O     O_R   0.167510 0.972920 0.030390 -0.517405
O31   O     O_R   0.990840 0.178580 0.027590 -0.514166
O32   O     O_R   0.972840 0.345510 0.038590 -0.462792
O33   O     O_R   0.181550 0.320660 0.045200 -0.511188

loop_
_geom_bond_atom_site_label_1
_geom_bond_atom_site_label_2
_ccdc_geom_bond_type
Cr1   O17   S    
C22   O16   A    
C98   H43   S    
C75   C76   A    
C101  C102  S    
C50   H6    S    
C68   C86   S    
C41   C42   A    
C66   C68   T    
C35   C36   A    
C44   C55   S    
Cr6   O11   S    
C5    H74   S    
C3    H69   S    
C31   H45   S    
C7    C8    S    
C90   N1    S    
C92   H25   S    
C77   C78   S    
C3    C105  S    
C47   H4    S    
C12   C13   A    
C59   C64   A    
C33   C39   A    
C82   C89   A    
C43   O22   S    
C71   H9    S    
C48   N4    S    
C83   C84   S    
C85   O30   A    
C94   H32   S    
C101  H51   S    
Cr5   O11   S    
C16   H12   S    
C57   C67   T    
C49   N3    S    
C71   C76   A    
C78   C80   T    
C105  O25   S    
Cr1   O18   S    
C27   C38   S    
C6    H77   S    
C105  H64   S    
C40   C73   S    
C8    H84   S    
C94   N3    S    
C22   C95   S    
C32   C39   A    
C61   C63   A    
C3    H68   S    
Cr6   O9    S    
C58   O28   A    
C28   H56   S    
C17   C19   A    
Cr2   O14   S    
Cr3   O16   S    
C58   O17   A    
C45   H3    S    
Cr2   O13   S    
Cr5   O8    S    
C33   H85   S    
Cr1   O29   S    
C102  H52   S    
C105  H65   S    
C99   H44   S    
C18   C51   A    
C103  H59   S    
C50   C52   A    
C41   C46   S    
C86   O6    A    
C8    H83   S    
C104  H62   S    
C93   H27   S    
C97   H40   S    
C59   O24   S    
Cr6   O2    S    
C34   O18   A    
Cr5   O32   S    
C104  H61   S    
Cr2   O19   S    
C13   H14   S    
C9    H23   S    
C45   C47   A    
C98   H42   S    
C59   C60   A    
C14   C15   A    
Cr2   O29   S    
C15   O26   S    
C90   H18   S    
C7    H80   S    
H70   N7    S    
C51   C62   S    
C5    H75   S    
C88   O5    A    
C34   C69   S    
Cr4   O6    S    
C92   H26   S    
H16   N1    S    
Cr5   O33   S    
C85   O3    A    
C97   C98   S    
C52   H5    S    
C30   H67   S    
C48   C53   A    
C96   H37   S    
C89   H2    S    
C14   H13   S    
C88   O10   A    
C1    O4    A    
C94   H31   S    
C64   C67   S    
C40   C82   A    
C83   O2    A    
H20   N2    S    
C24   C25   A    
Cr4   O11   S    
C74   C75   A    
Cr1   O4    S    
C75   N7    S    
C16   C17   A    
C4    N7    S    
C98   H41   S    
C32   H34   S    
C25   C26   A    
C53   C54   S    
C6    H76   S    
C74   C77   A    
C50   C56   A    
H55   N5    S    
C104  N6    S    
Cr4   O5    S    
C43   C44   A    
C103  N5    S    
C37   C38   T    
C93   H28   S    
C61   C65   A    
C61   N6    S    
C42   O21   S    
C63   H8    S    
C100  H49   S    
C31   C32   A    
C91   H22   S    
C97   H39   S    
C29   H11   S    
C6    H79   S    
C70   C73   T    
C81   O32   A    
C41   C47   A    
C91   H24   S    
C8    H82   S    
C18   C29   A    
C4    H73   S    
C17   N1    S    
C9    C11   A    
Cr6   O3    S    
C99   O22   S    
C2    H15   S    
C102  H53   S    
C48   C49   A    
C13   C95   A    
C60   C65   A    
C65   C66   S    
C16   C23   A    
C99   H46   S    
C26   C27   A    
C5    O26   S    
C91   N2    S    
C69   C79   T    
C42   C43   A    
C39   C85   S    
C10   C70   S    
C26   O20   S    
C52   C53   A    
C10   O15   A    
Cr3   O29   S    
C96   N4    S    
C96   H36   S    
C62   C84   T    
C54   C55   T    
C2    C95   A    
C23   C81   S    
C20   C21   T    
C31   C36   A    
C87   O8    A    
C14   C19   A    
C92   O20   S    
C44   C45   A    
C87   O9    A    
C56   C87   S    
Cr6   O10   S    
C72   C77   A    
C104  H63   S    
C11   C12   A    
C12   O27   S    
C18   H7    S    
C91   H21   S    
C1    O13   A    
C102  H54   S    
C49   C56   A    
C86   O7    A    
C97   O21   S    
C22   O1    A    
Cr5   O7    S    
C101  O24   S    
C94   H33   S    
C15   C23   A    
C46   O23   A    
C19   C20   S    
C101  H50   S    
C3    H66   S    
Cr3   O15   S    
C71   C72   A    
C80   C88   S    
C93   H29   S    
C25   H78   S    
C99   C100  S    
Cr4   O31   S    
C100  H48   S    
C57   C58   S    
C5    C6    S    
Cr3   O23   S    
H60   N6    S    
C96   H38   S    
C29   C40   A    
C28   C30   A    
C92   C93   S    
C33   C35   A    
C11   C21   S    
C4    H72   S    
H35   N4    S    
C7    H81   S    
C24   C30   A    
Cr1   O1    S    
C63   C64   A    
C90   H19   S    
C100  H47   S    
C60   N5    S    
C103  H57   S    
C74   H10   S    
Cr2   O12   S    
C83   O33   A    
C10   O14   A    
C1    C24   S    
C36   C37   S    
C46   O12   A    
C72   O25   S    
C76   C79   S    
C27   C28   A    
C103  H58   S    
C90   H17   S    
C81   O31   A    
H30   N3    S    
C4    H71   S    
C2    C9    A    
Cr3   O28   S    
C51   C89   A    
C34   O19   A    
C35   N2    S    
C82   H1    S    
C7    O27   S    
Cr4   O30   S    
