data_mof_unit_pretest_223.cif
_audit_creation_date              2012-12-11T17:05:35-0500
_audit_creation_method            fapswitch 2.2
_symmetry_space_group_name_H-M    P1
_symmetry_Int_Tables_number       1
_space_group_crystal_system       triclinic
_cell_length_a                    6.956813
_cell_length_b                    14.517378
_cell_length_c                    16.018601
_cell_angle_alpha                 90.254837
_cell_angle_beta                  90.060705
_cell_angle_gamma                 89.960362
_cell_volume                      1617.77625423

loop_
_atom_site_label
_atom_site_type_symbol
_atom_type_description
_atom_site_fract_x
_atom_site_fract_y
_atom_site_fract_z
_atom_type_partial_charge
O1    O     O_R   0.494380 0.415640 0.412830 -0.536667
O2    O     O_R   0.823960 0.405540 0.586560 -0.513362
O3    O     O_R   0.994270 0.584360 0.587170 -0.543511
C1    C     C_R   0.655276 0.382807 0.614663 0.738517
O4    O     O_R   0.824090 0.404620 0.413450 -0.544638
O5    O     O_R   0.994400 0.583430 0.412820 -0.540946
C2    C     C_R   0.655394 0.382415 0.384523 0.691429
O6    O     O_R   0.494250 0.416570 0.587180 -0.542398
O7    O     O_3   0.660800 0.558670 0.500000 -0.376466
V1    V     V_3+5 0.935650 0.489120 0.500000 1.414012
O8    O     O_R   0.324110 0.594460 0.413440 -0.539973
C3    C     C_R   0.155012 0.616546 0.384698 0.687963
O9    O     O_R   0.323980 0.595380 0.586550 -0.544569
C4    C     C_R   0.154807 0.617602 0.615558 0.648293
V2    V     V_3+5 0.435660 0.510880 0.500000 1.386341
O10   O     O_3   0.160640 0.441330 0.500000 -0.359564
C5    C     C_3   0.930085 0.705215 0.712627 -0.306739
H1    H     H_    0.846292 0.731285 0.658383 0.135411
H2    H     H_    0.862167 0.639536 0.732722 0.132303
C6    C     C_3   0.917622 0.775939 0.784724 -0.317549
H3    H     H_    0.844126 0.743726 0.838946 0.135665
H4    H     H_    0.828124 0.835456 0.764574 0.131525
H5    H     H_    0.153550 0.808327 0.604614 0.119233
H6    H     H_    0.134387 0.913703 0.711847 0.116587
C7    C     C_3   0.230782 0.781305 0.660238 -0.325072
C8    C     C_3   0.253001 0.652840 0.764542 -0.322817
C9    C     C_3   0.142719 0.687583 0.686428 0.119693
H7    H     H_    0.406645 0.640551 0.748662 0.137005
H8    H     H_    0.191908 0.585909 0.785234 0.118645
C10   C     C_3   0.121097 0.809710 0.810874 0.120195
C11   C     C_3   0.217923 0.852582 0.732754 -0.319849
C12   C     C_3   0.240424 0.724053 0.837113 -0.319440
H9    H     H_    0.173460 0.691205 0.892559 0.120325
H10   H     H_    0.388216 0.745413 0.855474 0.140530
H11   H     H_    0.383992 0.771796 0.642202 0.136725
H12   H     H_    0.365112 0.876941 0.748802 0.135200
C13   C     C_R   0.274564 0.750611 0.187879 0.097398
C14   C     C_R   0.118428 0.810879 0.179701 -0.112881
C15   C     C_R   0.966051 0.800961 0.236806 -0.178352
H13   H     H_    0.843031 0.846179 0.233211 0.130123
C16   C     C_R   0.977469 0.737379 0.302943 -0.183180
H14   H     H_    0.861901 0.734726 0.347920 0.127672
C17   C     C_R   0.142227 0.682303 0.314286 -0.110071
C18   C     C_R   0.286278 0.688011 0.253524 0.099368
C19   C     C_3   0.496231 0.704167 0.264223 -0.413749
C20   C     C_3   0.483540 0.771965 0.192453 -0.396291
H15   H     H_    0.582723 0.641873 0.249158 0.171638
H16   H     H_    0.529625 0.737512 0.325114 0.168677
H17   H     H_    0.562036 0.748715 0.135734 0.171976
H18   H     H_    0.510343 0.844549 0.211560 0.166731
C21   C     C_R   0.507229 0.321366 0.745833 0.012148
C22   C     C_R   0.648232 0.315203 0.683650 -0.196466
C23   C     C_R   0.787002 0.244172 0.690939 0.411483
C24   C     C_R   0.777480 0.180944 0.757757 -0.279624
H19   H     H_    0.884360 0.126832 0.761632 0.129047
C25   C     C_R   0.624065 0.183203 0.815082 -0.155332
C26   C     C_R   0.494065 0.256466 0.809171 0.091824
C27   C     C_3   0.279711 0.256487 0.806422 -0.375621
C28   C     C_3   0.294138 0.328115 0.737728 -0.352822
H20   H     H_    0.215409 0.283957 0.864944 0.161608
H21   H     H_    0.220006 0.189607 0.784487 0.179176
H22   H     H_    0.239190 0.396984 0.756775 0.150851
H23   H     H_    0.243143 0.303250 0.675972 0.226611
C29   C     C_R   0.490181 0.252245 0.308696 0.104892
C30   C     C_R   0.647601 0.311514 0.317588 -0.112666
C31   C     C_R   0.800713 0.300162 0.261030 -0.183243
H24   H     H_    0.924272 0.344918 0.264940 0.132387
C32   C     C_R   0.789209 0.235904 0.194910 -0.179223
H25   H     H_    0.905387 0.232231 0.150276 0.130953
C33   C     C_R   0.623644 0.181500 0.183056 -0.110609
C34   C     C_R   0.478475 0.188760 0.243185 0.098248
C35   C     C_3   0.269598 0.206572 0.231085 -0.414914
C36   C     C_3   0.282545 0.275603 0.302315 -0.401250
H26   H     H_    0.180506 0.145336 0.246183 0.172932
H27   H     H_    0.239141 0.239016 0.169752 0.170399
H28   H     H_    0.201479 0.254312 0.358562 0.176169
H29   H     H_    0.259344 0.348065 0.282457 0.166260
O11   O     O_R   0.771490 0.080820 0.910070 -0.538355
O12   O     O_R   0.441590 0.092730 0.083780 -0.538998
O13   O     O_R   0.271350 0.913900 0.084390 -0.535851
C37   C     C_R   0.610675 0.115105 0.112569 0.694125
O14   O     O_R   0.441780 0.091820 0.910670 -0.540904
O15   O     O_R   0.271540 0.912980 0.910040 -0.540586
C38   C     C_R   0.610635 0.113646 0.881923 0.717763
O16   O     O_R   0.771300 0.081740 0.084420 -0.539527
O17   O     O_3   0.604960 0.938700 0.997240 -0.371398
V3    V     V_3+5 0.330090 0.008230 0.997220 1.385930
O18   O     O_R   0.941820 0.901930 0.910640 -0.545042
C39   C     C_R   0.110591 0.879703 0.881691 0.650397
O19   O     O_R   0.941630 0.902840 0.083750 -0.542013
C40   C     C_R   0.110435 0.880994 0.112702 0.696457
V4    V     V_3+5 0.830090 0.986410 0.997190 1.378223
O20   O     O_3   0.105080 0.055990 0.997200 -0.366869
O21   O     O_3   0.927862 0.234323 0.630839 -0.556391
C41   C     C_3   0.877698 0.160822 0.577053 0.084655
H30   H     H_    0.723538 0.163921 0.557742 0.099073
H31   H     H_    0.906549 0.093721 0.607967 0.111803
C42   C     C_3   0.999104 0.166467 0.498479 -0.715577
H32   H     H_    0.154281 0.163687 0.514697 0.212860
H33   H     H_    0.964188 0.108091 0.456077 0.168950
H34   H     H_    0.968123 0.232086 0.465795 0.226964

loop_
_geom_bond_atom_site_label_1
_geom_bond_atom_site_label_2
_ccdc_geom_bond_type
C7    C11   S    
O15   V3    S    
C8    C12   S    
C16   H14   S    
C31   C32   A    
C41   H30   S    
C1    O6    A    
O12   V3    S    
O19   C40   A    
C41   C42   S    
C15   C16   A    
C6    C10   S    
C19   C20   S    
C18   C19   S    
C20   H17   S    
C8    C9    S    
C1    C22   S    
C3    C17   S    
C35   H27   S    
O5    C3    A    
C14   C15   A    
C27   H20   S    
O14   V3    S    
C5    C6    S    
C25   C26   A    
C29   C34   A    
C33   C37   S    
O8    V2    S    
O18   V4    S    
C32   H25   S    
C29   C36   S    
C33   C34   A    
C21   C26   A    
C4    C9    S    
O7    V1    S    
C27   H21   S    
C31   H24   S    
O9    C4    A    
C16   C17   A    
C10   C39   S    
C8    H7    S    
O16   V4    S    
C25   C38   S    
C19   H15   S    
O15   C39   A    
C24   C25   A    
C21   C22   A    
C5    C9    S    
C35   H26   S    
C15   H13   S    
O4    C2    A    
O17   V3    S    
O11   V4    S    
C27   C28   S    
C23   C24   A    
C14   C40   S    
C12   H10   S    
O2    C1    A    
C17   C18   A    
C13   C14   A    
C2    C30   S    
O19   V4    S    
C5    H1    S    
C6    H3    S    
O3    C4    A    
O13   V3    S    
C7    H11   S    
O1    V2    S    
C6    H4    S    
C30   C31   A    
O6    V2    S    
O14   C38   A    
O9    V2    S    
C36   H28   S    
C21   C28   S    
O2    V1    S    
C22   C23   A    
O12   C37   A    
C19   H16   S    
C24   H19   S    
C28   H22   S    
C23   O21   S    
O1    C2    A    
C28   H23   S    
C35   C36   S    
O5    V1    S    
O8    C3    A    
C41   H31   S    
C7    C9    S    
C42   H34   S    
C20   H18   S    
C42   H33   S    
C29   C30   A    
C13   C18   A    
O7    V2    S    
H6    C11   S    
O4    V1    S    
O3    V1    S    
V1    O10   S    
C12   H9    S    
C10   C12   S    
C26   C27   S    
C10   C11   S    
O13   C40   A    
V3    O20   S    
V4    O20   S    
C5    H2    S    
H5    C7    S    
O21   C41   S    
O11   C38   A    
C34   C35   S    
O18   C39   A    
C8    H8    S    
C32   C33   A    
C42   H32   S    
C36   H29   S    
C11   H12   S    
O17   V4    S    
C13   C20   S    
C37   O16   A    
V2    O10   S    
