data_mof_unit_pretest_1639.cif
_audit_creation_date              2012-12-10T19:01:37-0500
_audit_creation_method            fapswitch 2.2
_symmetry_space_group_name_H-M    P1
_symmetry_Int_Tables_number       1
_space_group_crystal_system       triclinic
_cell_length_a                    14.259745
_cell_length_b                    13.36967
_cell_length_c                    10.565962
_cell_angle_alpha                 90.000095
_cell_angle_beta                  90.330301
_cell_angle_gamma                 89.999953
_cell_volume                      2014.34694854

loop_
_atom_site_label
_atom_site_type_symbol
_atom_type_description
_atom_site_fract_x
_atom_site_fract_y
_atom_site_fract_z
_atom_type_partial_charge
C1    C     C_R   0.326544 0.500002 0.500600 0.925429
C2    C     C_3   0.547501 0.416738 0.964260 -0.192625
C3    C     C_3   0.547502 0.583382 0.964176 -0.241437
C4    C     C_3   0.452499 0.416738 0.035740 -0.192625
C5    C     C_3   0.416219 0.500059 0.948613 0.160351
C6    C     C_3   0.583781 0.500060 0.051387 0.160352
C7    C     C_3   0.508831 0.500007 0.878259 -0.029022
C8    C     C_3   0.491169 0.500007 0.121741 -0.029022
C9    C     C_1   0.500000 0.169423 0.500000 0.069216
C10   C     C_1   0.500000 0.830576 0.500000 0.063765
C11   C     C_1   0.225904 0.500009 0.500447 -0.226483
C12   C     C_R   0.673456 0.500002 0.499400 0.925429
C13   C     C_1   0.774096 0.500009 0.499553 -0.226483
C14   C     C_1   0.141341 0.500018 0.500308 -0.009282
C15   C     C_1   0.858659 0.500018 0.499692 -0.009282
C16   C     C_1   0.042281 0.500025 0.500098 0.006507
C17   C     C_1   0.957719 0.500024 0.499902 0.006507
C18   C     C_1   0.500000 0.049524 0.500000 -0.050346
C19   C     C_1   0.500000 0.950475 0.500000 -0.050718
C20   C     C_R   0.485377 0.499998 0.255461 0.898419
C21   C     C_R   0.514623 0.499998 0.744539 0.898420
C22   C     C_3   0.452497 0.583382 0.035824 -0.241437
H1    H     H_    0.412003 0.649450 0.068134 0.147795
H2    H     H_    0.587958 0.350654 0.931914 0.145469
H3    H     H_    0.587996 0.649450 0.931867 0.147795
H4    H     H_    0.412042 0.350654 0.068085 0.145469
H5    H     H_    0.274169 0.502179 0.957494 0.175073
H6    H     H_    0.318767 0.565682 0.834827 0.186669
H7    H     H_    0.725831 0.502179 0.042506 0.175073
H8    H     H_    0.681233 0.565682 0.165173 0.186669
N1    N     N_1   0.500000 0.261870 0.500000 -0.065647
N2    N     N_1   0.500000 0.738130 0.500000 -0.067163
N3    N     N_3   0.324788 0.499302 0.886477 -0.451086
N4    N     N_3   0.675212 0.499302 0.113522 -0.451085
O1    O     O_R   0.373710 0.576470 0.500000 -0.601609
O2    O     O_R   0.626290 0.423530 0.500000 -0.594840
O3    O     O_R   0.626290 0.576470 0.500000 -0.601609
O4    O     O_R   0.373710 0.423530 0.500000 -0.594840
O5    O     O_R   0.499980 0.576440 0.313950 -0.613638
O6    O     O_R   0.500020 0.423560 0.686050 -0.603015
O7    O     O_R   0.500020 0.576440 0.686050 -0.613638
O8    O     O_R   0.499980 0.423560 0.313950 -0.603015
Zn1   Zn    Zn3+2 0.500000 0.602090 0.500000 0.960222
Zn2   Zn    Zn3+2 0.500000 0.397910 0.500000 0.975319

loop_
_geom_bond_atom_site_label_1
_geom_bond_atom_site_label_2
_ccdc_geom_bond_type
O3    Zn1   S    
C2    C4    S    
O4    Zn2   S    
C12   O2    A    
O1    Zn1   S    
C20   O8    A    
C2    C7    S    
C1    C11   S    
O6    Zn2   S    
C10   C19   S    
C4    C8    S    
C3    C6    S    
C2    C6    S    
H5    N3    S    
C7    C21   S    
O7    Zn1   S    
C8    C20   S    
C21   O6    A    
O8    Zn2   S    
C1    O4    A    
C21   O7    A    
H7    N4    S    
N2    Zn1   S    
H6    N3    S    
C3    C7    S    
C13   C15   T    
C2    H2    S    
C11   C14   T    
C14   C16   S    
C4    H4    S    
O2    Zn2   S    
N1    Zn2   S    
C9    N1    T    
C10   N2    T    
C9    C18   S    
C3    H3    S    
C12   C13   S    
C1    O1    A    
C5    C7    S    
C18   C19   T    
C12   O3    A    
C15   C17   S    
C20   O5    A    
H8    N4    S    
C22   H1    S    
C16   C17   T    
C3    C22   S    
C6    C8    S    
O5    Zn1   S    
C8    C22   S    
C5    C22   S    
C6    N4    S    
C4    C5    S    
C5    N3    S    
