data_mof_unit_pretest_1638.cif
_audit_creation_date              2012-10-26T17:45:06-0400
_audit_creation_method            fapswitch 2.2
_symmetry_space_group_name_H-M    P1
_symmetry_Int_Tables_number       1
_space_group_crystal_system       triclinic
_cell_length_a                    32.248302
_cell_length_b                    32.248214
_cell_length_c                    23.701023
_cell_angle_alpha                 89.997114
_cell_angle_beta                  89.9948
_cell_angle_gamma                 89.997781
_cell_volume                      24647.8821313

loop_
_atom_site_label
_atom_site_type_symbol
_atom_type_description
_atom_site_fract_x
_atom_site_fract_y
_atom_site_fract_z
_atom_type_partial_charge
C1    C     C_R   0.000000 0.420400 0.500002 0.553275
C2    C     C_1   0.161540 0.000005 0.499998 0.033483
C3    C     C_R   0.728170 0.976204 0.460503 -0.104926
C4    C     C_R   0.030494 0.271834 0.529778 -0.104548
C5    C     C_R   0.728157 0.023797 0.539503 -0.104776
C6    C     C_R   0.974779 0.728163 0.537846 -0.105080
C7    C     C_R   0.271838 0.975387 0.538550 -0.104767
C8    C     C_R   0.475550 0.771843 0.961252 -0.104678
C9    C     C_R   0.771838 0.527181 0.964761 -0.104978
C10   C     C_R   0.524297 0.228161 0.961075 -0.104787
C11   C     C_R   0.228168 0.474680 0.962294 -0.104759
C12   C     C_R   0.524465 0.771832 0.038737 -0.104825
C13   C     C_1   0.000005 0.838460 0.500011 0.033534
C14   C     C_R   0.228154 0.525320 0.037697 -0.104886
C15   C     C_R   0.475701 0.228162 0.038939 -0.104897
C16   C     C_R   0.771837 0.472824 0.035221 -0.104749
C17   C     C_R   0.000001 0.293619 0.500002 -0.053542
C18   C     C_R   0.293619 0.000010 0.499999 -0.053359
C19   C     C_R   0.999996 0.706381 0.500008 -0.053253
C20   C     C_R   0.706382 0.999999 0.500002 -0.053289
C21   C     C_R   0.500008 0.793618 0.999996 -0.053319
C22   C     C_R   0.793618 0.500003 0.999992 -0.053291
C23   C     C_R   0.499998 0.206381 0.000007 -0.053310
C24   C     C_1   0.838460 0.000008 0.500008 0.033645
C25   C     C_R   0.206381 0.499997 0.999996 -0.053231
C26   C     C_3   0.051160 0.206433 0.617116 -0.114118
C27   C     C_3   0.206735 0.969879 0.630157 -0.114144
C28   C     C_3   0.967472 0.792721 0.629506 -0.113985
C29   C     C_3   0.793169 0.027439 0.631334 -0.113101
C30   C     C_3   0.948181 0.207237 0.382754 -0.114153
C31   C     C_3   0.793035 0.972484 0.368601 -0.114049
C32   C     C_3   0.032025 0.793425 0.370806 -0.113948
C33   C     C_3   0.206908 0.030242 0.369777 -0.113138
C34   C     C_3   0.529699 0.706898 0.130457 -0.113575
C35   C     C_1   0.499997 0.661540 0.999990 0.033396
C36   C     C_3   0.706792 0.460967 0.125745 -0.114218
C37   C     C_3   0.470827 0.293039 0.130723 -0.113901
C38   C     C_3   0.292916 0.532788 0.129228 -0.113917
C39   C     C_3   0.470445 0.706682 0.869628 -0.113967
C40   C     C_3   0.293197 0.467458 0.870869 -0.114108
C41   C     C_3   0.529108 0.293178 0.869347 -0.113584
C42   C     C_3   0.707177 0.539316 0.874107 -0.113926
C43   C     C_1   0.661540 0.499998 0.999989 0.033689
C44   C     C_1   0.500004 0.338460 0.000006 0.033587
C45   C     C_1   0.338460 0.500003 0.000008 0.033589
C46   C     C_1   0.000001 0.338360 0.500006 -0.047241
C47   C     C_1   0.338361 0.000007 0.499997 -0.047150
C48   C     C_1   0.999994 0.661640 0.500004 -0.047171
C49   C     C_R   0.420400 0.000001 0.499999 0.553092
C50   C     C_1   0.661641 0.999997 0.500000 -0.047156
C51   C     C_1   0.500007 0.838360 0.999999 -0.047145
C52   C     C_1   0.838359 0.500004 0.999996 -0.047177
C53   C     C_1   0.499997 0.161640 0.000006 -0.047170
C54   C     C_1   0.161640 0.499997 0.999994 -0.047141
C55   C     C_1   0.000001 0.375809 0.500005 -0.015046
C56   C     C_1   0.375809 0.000004 0.499998 -0.015039
C57   C     C_1   0.999996 0.624191 0.500001 -0.015075
C58   C     C_1   0.624192 0.999998 0.499999 -0.015074
C59   C     C_1   0.500004 0.875809 0.000000 -0.015038
C60   C     C_R   0.999999 0.579600 0.500000 0.553103
C61   C     C_1   0.875808 0.500003 0.999998 -0.015067
C62   C     C_1   0.499997 0.124191 0.000004 -0.015069
C63   C     C_1   0.124191 0.499997 0.999995 -0.015043
C64   C     C_1   0.000001 0.124098 0.499994 0.004484
C65   C     C_1   0.124098 0.000002 0.499995 0.004750
C66   C     C_1   0.000006 0.875901 0.500006 0.004535
C67   C     C_1   0.875901 0.000007 0.500006 0.004811
C68   C     C_1   0.499997 0.624099 0.999994 0.004630
C69   C     C_1   0.624099 0.499997 0.999992 0.004630
C70   C     C_1   0.500004 0.375901 0.000004 0.004709
C71   C     C_R   0.579600 0.999999 0.499999 0.553061
C72   C     C_1   0.375901 0.500002 0.000007 0.004571
C73   C     C_R   0.000002 0.500000 0.391690 0.552237
C74   C     C_R   0.500000 0.000001 0.391690 0.552122
C75   C     C_R   0.999998 0.500001 0.608310 0.552234
C76   C     C_R   0.500000 0.999999 0.608310 0.552130
C77   C     C_R   0.500001 1.000000 0.891690 0.552136
C78   C     C_R   1.000000 0.500001 0.891690 0.552158
C79   C     C_R   0.499998 0.000000 0.108310 0.552127
C80   C     C_R   0.000000 0.499999 0.108310 0.552161
C81   C     C_R   0.079519 0.000000 0.499998 0.555051
C82   C     C_R   0.500001 0.920400 0.000001 0.553091
C83   C     C_R   0.000003 0.920481 0.500001 0.554747
C84   C     C_R   0.920481 0.000003 0.500002 0.554952
C85   C     C_R   0.000001 0.079519 0.499999 0.555317
C86   C     C_R   0.579519 0.499999 0.999998 0.554988
C87   C     C_R   0.500001 0.420481 0.000001 0.554863
C88   C     C_R   0.420481 0.500001 0.000002 0.554771
C89   C     C_R   0.499998 0.579519 0.999999 0.554890
C90   C     C_1   0.000005 0.499998 0.330906 -0.014627
C91   C     C_1   0.499998 0.000003 0.330906 -0.014753
C92   C     C_1   0.999995 0.500002 0.669093 -0.014630
C93   C     C_R   0.920400 0.500001 0.000000 0.553127
C94   C     C_1   0.500002 0.999997 0.669094 -0.014738
C95   C     C_1   0.500005 0.999998 0.830906 -0.014736
C96   C     C_1   0.999998 0.500003 0.830906 -0.014647
C97   C     C_1   0.499995 0.000002 0.169093 -0.014751
C98   C     C_1   0.000002 0.499997 0.169094 -0.014643
C99   C     C_1   0.000005 0.499997 0.279900 -0.034114
C100  C     C_1   0.499996 0.000004 0.279900 -0.034249
C101  C     C_1   0.999995 0.500004 0.720100 -0.034118
C102  C     C_1   0.500004 0.999996 0.720100 -0.034230
C103  C     C_1   0.500005 0.999997 0.779900 -0.034230
C104  C     C_R   0.499999 0.079600 0.000001 0.553077
C105  C     C_1   0.999996 0.500004 0.779900 -0.034123
C106  C     C_1   0.499995 0.000003 0.220100 -0.034249
C107  C     C_1   0.000004 0.499996 0.220100 -0.034118
C108  C     C_R   0.030230 0.228260 0.530841 0.246241
C109  C     C_R   0.228260 0.975826 0.539512 0.246339
C110  C     C_R   0.975211 0.771748 0.538831 0.246498
C111  C     C_R   0.771736 0.023339 0.540451 0.246397
C112  C     C_R   0.969762 0.228258 0.469153 0.246519
C113  C     C_R   0.771751 0.976671 0.459558 0.246374
C114  C     C_R   0.024788 0.771737 0.461201 0.246261
C115  C     C_R   0.079600 0.499999 0.999998 0.553090
C116  C     C_R   0.228259 0.024193 0.460491 0.246475
C117  C     C_R   0.524018 0.728251 0.039690 0.246473
C118  C     C_R   0.728258 0.473196 0.036235 0.246340
C119  C     C_R   0.476152 0.271743 0.039894 0.246399
C120  C     C_R   0.271737 0.524900 0.038682 0.246420
C121  C     C_R   0.475988 0.728266 0.960293 0.246344
C122  C     C_R   0.271748 0.475105 0.961320 0.246367
C123  C     C_R   0.523850 0.271740 0.960118 0.246376
C124  C     C_R   0.728255 0.526804 0.963736 0.246434
C125  C     C_R   0.999994 0.206389 0.500001 0.051437
C126  C     C_1   1.000000 0.161539 0.499992 0.033302
C127  C     C_R   0.206389 0.000010 0.500003 0.051387
C128  C     C_R   0.999998 0.793612 0.500011 0.051628
C129  C     C_R   0.793614 0.000005 0.500008 0.051460
C130  C     C_R   0.500003 0.706388 0.999988 0.051441
C131  C     C_R   0.706388 0.500001 0.999988 0.051671
C132  C     C_R   0.500001 0.293611 0.000004 0.051530
C133  C     C_R   0.293612 0.500004 0.000002 0.051673
C134  C     C_R   0.969501 0.271843 0.470233 -0.105093
C135  C     C_R   0.271840 0.024634 0.461450 -0.104847
C136  C     C_R   0.025212 0.728162 0.462172 -0.104576
Cu1   Cu    Cu3+1 0.958970 0.500000 0.500000 0.961334
Cu2   Cu    Cu3+1 0.000000 1.000000 0.555770 0.964623
Cu3   Cu    Cu3+1 0.500000 0.500000 0.944230 0.964796
Cu4   Cu    Cu3+1 0.500000 0.500000 0.055770 0.964881
Cu5   Cu    Cu3+1 0.500000 0.041030 0.500000 0.961534
Cu6   Cu    Cu3+1 0.041030 0.500000 0.500000 0.961416
Cu7   Cu    Cu3+1 0.500000 0.958970 0.500000 0.961539
Cu8   Cu    Cu3+1 0.458970 0.000000 0.000000 0.961525
Cu9   Cu    Cu3+1 0.000000 0.541030 0.000000 0.961435
Cu10  Cu    Cu3+1 0.541030 0.000000 0.000000 0.961507
Cu11  Cu    Cu3+1 0.000000 0.458970 0.000000 0.961853
Cu12  Cu    Cu3+1 0.000000 0.000000 0.444230 0.964761
H1    H     H_    0.054418 0.288570 0.552412 0.136071
H2    H     H_    0.788580 0.451417 0.062119 0.135439
H3    H     H_    0.456492 0.211416 0.068748 0.135308
H4    H     H_    0.211401 0.545318 0.066521 0.135253
H5    H     H_    0.456226 0.788591 0.931583 0.135543
H6    H     H_    0.211428 0.454693 0.933447 0.135328
H7    H     H_    0.543502 0.211415 0.931262 0.135502
H8    H     H_    0.788591 0.548601 0.937891 0.135223
H9    H     H_    0.020630 0.191271 0.624738 0.119377
H10   H     H_    0.051427 0.238232 0.635358 0.113200
H11   H     H_    0.075045 0.188019 0.639613 0.150743
H12   H     H_    0.288581 0.955936 0.568066 0.135498
H13   H     H_    0.191871 0.001033 0.628290 0.119157
H14   H     H_    0.238602 0.972323 0.647858 0.113051
H15   H     H_    0.188205 0.950518 0.659492 0.150555
H16   H     H_    0.998973 0.806895 0.629069 0.119594
H17   H     H_    0.968800 0.760755 0.647082 0.113145
H18   H     H_    0.947863 0.811584 0.658143 0.150389
H19   H     H_    0.807946 0.996293 0.628343 0.119589
H20   H     H_    0.761284 0.024736 0.648907 0.113015
H21   H     H_    0.811741 0.046156 0.661398 0.151235
H22   H     H_    0.978993 0.192935 0.374187 0.119147
H23   H     H_    0.954855 0.711409 0.566766 0.134961
H24   H     H_    0.946895 0.239202 0.365153 0.113062
H25   H     H_    0.924512 0.188463 0.360395 0.150576
H26   H     H_    0.807526 0.003770 0.371464 0.119027
H27   H     H_    0.761128 0.974857 0.351026 0.113133
H28   H     H_    0.811782 0.953876 0.338608 0.150471
H29   H     H_    0.000966 0.808522 0.371938 0.119916
H30   H     H_    0.029572 0.761589 0.352997 0.113123
H31   H     H_    0.051911 0.811830 0.341973 0.150585
H32   H     H_    0.192328 0.998949 0.371502 0.119442
H33   H     H_    0.238804 0.028127 0.352085 0.113081
H34   H     H_    0.711407 0.042620 0.569766 0.135523
H35   H     H_    0.188211 0.049499 0.340516 0.151349
H36   H     H_    0.498386 0.692379 0.128502 0.119520
H37   H     H_    0.527577 0.738787 0.148156 0.113215
H38   H     H_    0.548803 0.688144 0.159848 0.150827
H39   H     H_    0.692035 0.492161 0.127931 0.119584
H40   H     H_    0.738666 0.462051 0.143671 0.113034
H41   H     H_    0.688192 0.439705 0.152449 0.150414
H42   H     H_    0.502127 0.307570 0.128569 0.119383
H43   H     H_    0.473025 0.261132 0.148354 0.113154
H44   H     H_    0.451824 0.311752 0.160278 0.150653
H45   H     H_    0.945556 0.288597 0.447661 0.135329
H46   H     H_    0.307505 0.501478 0.128803 0.119825
H47   H     H_    0.260971 0.531040 0.146824 0.113085
H48   H     H_    0.311515 0.552657 0.157830 0.150580
H49   H     H_    0.501537 0.691716 0.871782 0.119633
H50   H     H_    0.473081 0.738536 0.851931 0.113074
H51   H     H_    0.451167 0.688208 0.840127 0.150563
H52   H     H_    0.307906 0.498709 0.871611 0.119732
H53   H     H_    0.261321 0.469402 0.853091 0.113094
H54   H     H_    0.311828 0.447628 0.842233 0.150408
H55   H     H_    0.497931 0.307965 0.871604 0.119627
H56   H     H_    0.711427 0.957376 0.430245 0.135224
H57   H     H_    0.526620 0.261292 0.851721 0.113077
H58   H     H_    0.548212 0.311736 0.839729 0.150908
H59   H     H_    0.692896 0.507918 0.871521 0.119463
H60   H     H_    0.739123 0.538804 0.856377 0.113240
H61   H     H_    0.688354 0.560437 0.847486 0.150518
H62   H     H_    0.045111 0.711421 0.433205 0.135656
H63   H     H_    0.288586 0.044089 0.431941 0.135487
H64   H     H_    0.543796 0.788574 0.068397 0.135374
O1    O     O_R   0.965350 0.440130 0.499980 -0.501687
O2    O     O_R   0.940130 0.534650 0.999980 -0.501608
O3    O     O_R   0.534650 0.059870 0.999980 -0.501515
O4    O     O_R   0.059870 0.465350 0.999980 -0.501495
O5    O     O_R   0.534650 0.940130 0.000020 -0.501516
O6    O     O_R   0.059870 0.534650 0.000020 -0.501553
O7    O     O_R   0.465350 0.059870 0.000020 -0.501523
O8    O     O_R   0.940130 0.465350 0.000020 -0.501540
O9    O     O_R   0.059790 0.999980 0.452860 -0.501136
O10   O     O_R   0.999980 0.940210 0.452860 -0.501838
O11   O     O_R   0.940210 0.000020 0.452860 -0.502129
O12   O     O_R   0.440130 0.034650 0.499980 -0.501518
O13   O     O_R   0.000020 0.059790 0.452860 -0.502190
O14   O     O_R   0.940210 0.999980 0.547140 -0.501088
O15   O     O_R   0.000020 0.940210 0.547140 -0.501669
O16   O     O_R   0.059790 0.000020 0.547140 -0.502328
O17   O     O_R   0.999980 0.059790 0.547140 -0.502388
O18   O     O_R   0.559790 0.499980 0.952860 -0.501869
O19   O     O_R   0.499980 0.440210 0.952860 -0.501525
O20   O     O_R   0.440210 0.500020 0.952860 -0.501855
O21   O     O_R   0.500020 0.559790 0.952860 -0.501930
O22   O     O_R   0.440210 0.499980 0.047140 -0.501697
O23   O     O_R   0.034650 0.559870 0.499980 -0.501517
O24   O     O_R   0.500020 0.440210 0.047140 -0.501815
O25   O     O_R   0.559790 0.500020 0.047140 -0.502074
O26   O     O_R   0.499980 0.559790 0.047140 -0.501478
O27   O     O_R   0.965350 0.499980 0.418590 -0.501543
O28   O     O_R   0.499980 0.034650 0.418590 -0.501467
O29   O     O_R   0.034650 0.500020 0.418590 -0.501293
O30   O     O_R   0.500020 0.965350 0.418590 -0.501399
O31   O     O_R   0.034650 0.499980 0.581410 -0.501535
O32   O     O_R   0.500020 0.034650 0.581410 -0.501398
O33   O     O_R   0.965350 0.500020 0.581410 -0.501304
O34   O     O_R   0.559870 0.965350 0.499980 -0.501511
O35   O     O_R   0.499980 0.965350 0.581410 -0.501454
O36   O     O_R   0.465350 0.999980 0.918590 -0.501462
O37   O     O_R   0.999980 0.534650 0.918590 -0.501520
O38   O     O_R   0.534650 0.000020 0.918590 -0.501393
O39   O     O_R   0.000020 0.465350 0.918590 -0.501296
O40   O     O_R   0.534650 0.999980 0.081410 -0.501477
O41   O     O_R   0.000020 0.534650 0.081410 -0.501402
O42   O     O_R   0.465350 0.000020 0.081410 -0.501392
O43   O     O_R   0.999980 0.465350 0.081410 -0.501408
O44   O     O_3   0.061070 0.206998 0.559191 -0.556110
O45   O     O_R   0.034650 0.440130 0.500020 -0.501653
O46   O     O_3   0.206980 0.950623 0.576764 -0.556407
O47   O     O_3   0.949440 0.793067 0.575326 -0.556697
O48   O     O_3   0.793014 0.047749 0.578667 -0.555707
O49   O     O_3   0.938911 0.206948 0.440881 -0.556226
O50   O     O_3   0.793056 0.952275 0.421343 -0.556471
O51   O     O_3   0.050564 0.793002 0.424665 -0.556566
O52   O     O_3   0.206966 0.049389 0.423245 -0.555645
O53   O     O_3   0.549055 0.706950 0.077127 -0.556196
O54   O     O_3   0.706974 0.445531 0.070098 -0.556506
O55   O     O_3   0.451272 0.293041 0.077530 -0.556445
O56   O     O_R   0.559870 0.034650 0.500020 -0.501502
O57   O     O_3   0.293030 0.550797 0.075026 -0.556587
O58   O     O_3   0.450932 0.706999 0.922853 -0.556460
O59   O     O_3   0.293040 0.449237 0.924934 -0.556650
O60   O     O_3   0.548744 0.293024 0.922484 -0.556170
O61   O     O_3   0.706944 0.554468 0.929897 -0.556476
O62   O     O_R   0.965350 0.559870 0.500020 -0.501550
O63   O     O_R   0.440130 0.965350 0.500020 -0.501510
O64   O     O_R   0.465350 0.940130 0.999980 -0.501504

loop_
_geom_bond_atom_site_label_1
_geom_bond_atom_site_label_2
_ccdc_geom_bond_type
C123  O60   S    
C135  H63   S    
Cu1   Cu6   S    
C71   O56   A    
C78   O39   A    
C80   O43   A    
C123  C132  A    
C32   O51   S    
C79   O40   A    
C5    H34   S    
C34   O53   S    
C59   C82   S    
C121  C130  A    
C114  O51   S    
C2    C65   T    
C84   O14   A    
C18   C47   S    
C9    C124  A    
C15   H3    S    
C48   C57   T    
C122  C133  A    
C116  C135  A    
C31   H27   S    
C78   O37   A    
C4    H1    S    
C4    C108  A    
C33   O52   S    
Cu11  O39   S    
C91   C100  T    
C113  C129  A    
C88   O22   A    
C26   H9    S    
C93   O8    A    
C29   H20   S    
Cu9   O37   S    
C109  C127  A    
C76   O32   A    
Cu12  O11   S    
C6    C19   A    
C73   C90   S    
C73   O27   A    
C52   C61   T    
Cu5   Cu7   S    
C27   H14   S    
C61   C93   S    
C8    C121  A    
C54   C63   T    
C11   C25   A    
C76   O35   A    
Cu1   O62   S    
C109  O46   S    
C86   O25   A    
Cu1   O33   S    
C38   H47   S    
C41   O60   S    
C34   H38   S    
C120  C133  A    
C37   O55   S    
C89   O21   A    
C41   H58   S    
Cu2   O14   S    
Cu12  O10   S    
C30   H22   S    
C20   C50   S    
C118  C131  A    
C24   C67   T    
C27   H15   S    
C66   C83   S    
C118  O54   S    
Cu10  O5    S    
C24   C129  S    
C111  C129  A    
C134  H45   S    
Cu9   O6    S    
C9    H8    S    
C78   C96   S    
C116  C127  A    
C46   C55   T    
C33   H35   S    
Cu1   O1    S    
C64   C126  T    
C15   C119  A    
C115  O6    A    
C44   C70   T    
Cu3   O20   S    
Cu11  O8    S    
C108  C125  A    
C41   H55   S    
C34   H36   S    
C30   H25   S    
C1    O45   A    
Cu10  O3    S    
C75   O33   A    
C39   O58   S    
C28   H18   S    
C112  O49   S    
C31   H28   S    
C76   C94   S    
C2    C127  S    
C28   O47   S    
C15   C23   A    
C37   H42   S    
C39   H49   S    
Cu9   O2    S    
C67   C84   S    
C43   C69   T    
C108  O44   S    
C33   H32   S    
Cu7   O63   S    
C3    H56   S    
C6    C110  A    
C32   H30   S    
Cu2   O15   S    
C60   O23   A    
C74   O28   A    
C70   C87   S    
Cu9   Cu11  S    
C95   C103  T    
C23   C53   S    
C62   C104  S    
C13   C66   T    
C101  C105  S    
C29   O48   S    
C80   O41   A    
C81   O16   A    
C36   H41   S    
C86   O18   A    
Cu5   O56   S    
C26   H11   S    
C85   O17   A    
C17   C46   S    
C12   H64   S    
Cu8   O7    S    
Cu8   Cu10  S    
C10   C123  A    
C3    C113  A    
Cu11  O43   S    
Cu2   Cu12  S    
C5    C20   A    
C19   C48   S    
C5    C111  A    
C57   C60   S    
C83   O15   A    
C7    H12   S    
Cu9   O41   S    
C19   C136  A    
Cu8   O42   S    
C12   C21   A    
C77   C95   S    
C87   O24   A    
C38   H46   S    
C124  C131  A    
Cu10  O40   S    
C36   H40   S    
Cu6   O45   S    
C50   C58   T    
C74   C91   S    
Cu1   O27   S    
C34   H37   S    
C82   O64   A    
Cu12  O9    S    
C104  O7    A    
Cu3   O21   S    
C116  O52   S    
C16   C118  A    
C114  C128  A    
C53   C62   T    
C65   C81   S    
C42   O61   S    
C7    C18   A    
C119  O55   S    
C37   H44   S    
Cu4   O26   S    
C68   C89   S    
C77   O36   A    
Cu7   O30   S    
C73   O29   A    
C42   H59   S    
C32   H31   S    
C75   O31   A    
C45   C72   T    
C25   C54   S    
C42   H60   S    
C117  C130  A    
C35   C130  S    
C30   H24   S    
C112  C125  A    
C42   H61   S    
C40   H52   S    
C28   H17   S    
C136  H62   S    
C4    C17   A    
C75   C92   S    
Cu6   O23   S    
C37   H43   S    
C39   H50   S    
Cu10  O38   S    
Cu11  O4    S    
Cu5   O28   S    
C14   C120  A    
C31   O50   S    
C49   O12   A    
C1    O1    A    
C125  C126  S    
Cu2   O16   S    
C32   H29   S    
C11   C122  A    
C51   C59   T    
C97   C106  T    
C83   O10   A    
C64   C85   S    
C21   C51   S    
C99   C107  S    
C28   H16   S    
C96   C105  T    
C22   C52   S    
C6    H23   S    
C122  O59   S    
C40   O59   S    
C90   C99   T    
C27   O46   S    
C39   H51   S    
C111  O48   S    
C16   C22   A    
C88   O20   A    
C93   O2    A    
Cu5   O32   S    
C36   O54   S    
C89   O26   A    
Cu4   O22   S    
Cu2   O17   S    
Cu12  O13   S    
C104  O3    A    
C40   H54   S    
C10   H7    S    
C84   O11   A    
C119  C132  A    
C8    H5    S    
Cu3   O19   S    
Cu3   Cu4   S    
C79   C97   S    
C92   C101  T    
C10   C23   A    
C44   C132  S    
Cu6   O29   S    
C81   O9    A    
C60   O62   A    
C45   C133  S    
C13   C128  S    
Cu7   O34   S    
Cu8   O64   S    
C36   H39   S    
C30   O49   S    
Cu8   O36   S    
C1    C55   S    
C63   C115  S    
C110  O47   S    
C49   C56   S    
C26   O44   S    
C27   H13   S    
C33   H33   S    
C3    C20   A    
C29   H19   S    
C82   O5    A    
C80   C98   S    
C35   C68   T    
C18   C135  A    
C87   O19   A    
C43   C131  S    
Cu4   O25   S    
C79   O42   A    
C38   H48   S    
C115  O4    A    
C26   H10   S    
Cu3   O18   S    
C113  O50   S    
C14   C25   A    
C41   H57   S    
C102  C103  S    
C58   C71   S    
C38   O57   S    
C11   H6    S    
C120  O57   S    
Cu5   O12   S    
C100  C106  S    
C12   C117  A    
C74   O30   A    
C7    C109  A    
Cu7   O35   S    
C85   O13   A    
C40   H53   S    
C49   O63   A    
C9    C22   A    
C124  O61   S    
C14   H4    S    
C17   C134  A    
Cu4   O24   S    
C8    C21   A    
C114  C136  A    
C16   H2    S    
C77   O38   A    
C71   O34   A    
C29   H21   S    
C72   C88   S    
C112  C134  A    
C121  O58   S    
C117  O53   S    
C69   C86   S    
Cu6   O31   S    
C94   C102  T    
C110  C128  A    
C47   C56   T    
C98   C107  T    
C31   H26   S    
