data_mof_unit_pretest_954.cif
_audit_creation_date              2012-10-26T18:27:28-0400
_audit_creation_method            fapswitch 2.2
_symmetry_space_group_name_H-M    P1
_symmetry_Int_Tables_number       1
_space_group_crystal_system       triclinic
_cell_length_a                    10.907415
_cell_length_b                    11.134624
_cell_length_c                    9.94277
_cell_angle_alpha                 110.907266
_cell_angle_beta                  98.436289
_cell_angle_gamma                 93.405289
_cell_volume                      1107.64708167

loop_
_atom_site_label
_atom_site_type_symbol
_atom_type_description
_atom_site_fract_x
_atom_site_fract_y
_atom_site_fract_z
_atom_type_partial_charge
C1    C     C_R   0.492611 0.254425 0.441246 0.594943
C2    C     C_2   0.468461 0.938249 0.507247 0.281928
C3    C     C_2   0.498843 0.525683 0.086226 0.456875
C4    C     C_R   0.263339 0.506853 0.502560 0.625669
C5    C     C_2   0.477917 0.503234 0.923044 0.496262
C6    C     C_R   0.511579 0.745027 0.558160 0.575684
C7    C     C_R   0.737120 0.499542 0.499059 0.582409
C8    C     C_R   0.163231 0.705991 0.746966 0.209118
C9    C     C_R   0.112815 0.768226 0.874313 0.243527
C10   C     C_R   0.985790 0.775996 0.860999 0.330451
C11   C     C_R   0.909643 0.710729 0.724259 0.191137
C12   C     C_R   0.084909 0.609944 0.622021 -0.103750
C13   C     C_R   0.954239 0.610343 0.614202 -0.129989
C14   C     C_3   0.088655 0.334583 0.157021 -0.049187
C15   C     C_3   0.526680 0.997509 0.191119 -0.126355
C16   C     C_3   0.263043 0.475745 0.881793 -0.082800
C17   C     C_3   0.678362 0.658634 0.230326 -0.029588
C18   C     C_3   0.293077 0.877376 0.756621 -0.099427
C19   C     C_3   0.794239 0.310632 0.160060 -0.082571
C20   C     C_3   0.312343 0.807406 0.316206 -0.053818
C21   C     C_3   0.517791 0.177811 0.772711 -0.031528
C22   C     C_R   0.129753 0.515267 0.505240 -0.025697
C23   C     C_R   0.045156 0.419546 0.389735 0.257642
C24   C     C_R   0.916732 0.415624 0.388802 0.264041
C25   C     C_R   0.871399 0.511181 0.499300 -0.037270
C26   C     C_2   0.481475 0.114704 0.411912 0.281642
C27   C     C_2   0.507846 0.073538 0.524907 0.306944
C28   C     C_2   0.542013 0.881555 0.582823 0.201848
Cu1   Cu    Cu3+1 0.521920 0.521810 0.644910 1.101426
Cu2   Cu    Cu3+1 0.478080 0.478190 0.355090 0.985640
H1    H     H_    0.072843 0.433837 0.160780 0.062581
H2    H     H_    0.726587 0.738238 0.208052 0.166834
H3    H     H_    0.720927 0.568525 0.179898 0.115331
H4    H     H_    0.698178 0.689300 0.350542 0.130291
H5    H     H_    0.701268 0.657066 0.880140 0.379445
H6    H     H_    0.380036 0.274476 0.096831 0.368346
H7    H     H_    0.390976 0.911640 0.762820 0.125274
H8    H     H_    0.268154 0.943947 0.859231 0.153576
H9    H     H_    0.233681 0.888161 0.661841 0.177336
H10   H     H_    0.273086 0.812296 0.004934 0.329150
H11   H     H_    0.849345 0.851442 0.956195 0.346113
H12   H     H_    0.018202 0.261919 0.070027 0.143948
H13   H     H_    0.783107 0.746543 0.593866 0.327163
H14   H     H_    0.839951 0.393339 0.140035 0.072329
H15   H     H_    0.692122 0.315057 0.146511 0.160283
H16   H     H_    0.807940 0.219355 0.073284 0.151564
H17   H     H_    0.389700 0.800036 0.253626 0.184615
H18   H     H_    0.232612 0.839550 0.261063 0.219140
H19   H     H_    0.279788 0.709868 0.312655 0.142999
H20   H     H_    0.524198 0.099331 0.816185 0.108687
H21   H     H_    0.418046 0.190051 0.743376 0.176279
H22   H     H_    0.564551 0.267260 0.862923 0.170535
H23   H     H_    0.179834 0.315311 0.123364 0.163344
H24   H     H_    0.666782 0.921017 0.754605 0.351544
H25   H     H_    0.596272 0.948912 0.240594 0.138795
H26   H     H_    0.573560 0.084303 0.180263 0.145975
H27   H     H_    0.486273 0.928470 0.079132 0.154404
H28   H     H_    0.273721 0.583346 0.929406 0.096670
H29   H     H_    0.235519 0.436871 0.962565 0.131235
H30   H     H_    0.184707 0.443558 0.787252 0.148190
N1    N     N_2   0.445130 0.445430 0.137370 -0.116116
N2    N     N_2   0.554930 0.554500 0.862630 -0.070686
O1    O     O_R   0.511700 0.332330 0.577400 -0.467188
O2    O     O_3   0.429609 0.029395 0.272362 -0.587035
O3    O     O_3   0.371362 0.425732 0.832252 -0.553563
O4    O     O_3   0.548419 0.649750 0.181595 -0.595449
O5    O     O_3   0.661087 0.624838 0.945465 -0.681550
O6    O     O_3   0.408631 0.324272 0.040507 -0.707987
O7    O     O_3   0.284626 0.746134 0.743543 -0.555603
O8    O     O_3   0.187344 0.836530 0.008373 -0.667518
O9    O     O_3   0.941506 0.858157 0.979639 -0.625113
O10   O     O_3   0.797313 0.754232 0.697416 -0.717448
O11   O     O_3   0.838583 0.304134 0.298068 -0.528153
O12   O     O_R   0.474680 0.295500 0.332650 -0.508145
O13   O     O_3   0.341691 0.894181 0.462867 -0.629379
O14   O     O_3   0.582509 0.156817 0.654960 -0.544605
O15   O     O_3   0.654693 0.946322 0.668107 -0.692232
O16   O     O_R   0.338160 0.518420 0.622400 -0.430170
O17   O     O_R   0.301140 0.481590 0.377650 -0.512854
O18   O     O_R   0.525320 0.704500 0.667350 -0.474271
O19   O     O_R   0.488300 0.667670 0.422600 -0.499644
O20   O     O_R   0.698860 0.518410 0.622350 -0.472361
O21   O     O_R   0.661840 0.481580 0.377600 -0.534873
O22   O     O_3   0.089482 0.316147 0.290819 -0.505240

loop_
_geom_bond_atom_site_label_1
_geom_bond_atom_site_label_2
_ccdc_geom_bond_type
C7    O21   A    
Cu1   O1    S    
H13   O10   S    
C14   O22   S    
C14   H1    S    
C19   H16   S    
C21   O14   S    
C8    O7    S    
Cu1   Cu2   S    
H10   O8    S    
N2    O5    S    
C1    O12   A    
C18   H7    S    
Cu2   O12   S    
C24   O11   S    
C12   C22   A    
C16   H30   S    
Cu2   O21   S    
C26   O2    S    
C6    C28   S    
Cu1   O16   S    
C8    C9    A    
C15   O2    S    
C2    C27   S    
C9    C10   A    
H11   O9    S    
H24   O15   S    
C10   O9    S    
C18   O7    S    
C6    O19   A    
C15   H27   S    
C13   C25   A    
C17   H3    S    
C1    O1    A    
C21   H20   S    
C3    N1    D    
C23   O22   S    
C19   O11   S    
C9    O8    S    
C4    O17   A    
C5    O3    S    
C11   O10   S    
C20   O13   S    
C16   H29   S    
C15   H25   S    
C18   H9    S    
C4    O16   A    
C20   H19   S    
C4    C22   S    
C6    O18   A    
H5    O5    S    
C8    C12   A    
C7    O20   A    
H6    O6    S    
C17   O4    S    
C16   H28   S    
C24   C25   A    
C28   O15   S    
C20   H18   S    
Cu2   O17   S    
C26   C27   D    
C1    C26   S    
C3    O4    S    
C17   H4    S    
C27   O14   S    
C21   H21   S    
C19   H14   S    
Cu1   N2    S    
C3    C5    S    
C19   H15   S    
C7    C25   S    
C14   H12   S    
C15   H26   S    
Cu2   O19   S    
C18   H8    S    
Cu1   O20   S    
C11   C13   A    
N1    O6    S    
Cu1   O18   S    
C5    N2    D    
C20   H17   S    
C10   C11   A    
C23   C24   A    
C14   H23   S    
C12   C13   A    
Cu2   N1    S    
C17   H2    S    
C22   C23   A    
C2    C28   D    
C16   O3    S    
C21   H22   S    
C2    O13   S    
