data_mof_unit_pretest_754.cif
_audit_creation_date              2013-03-05T16:31:21-0500
_audit_creation_method            fapswitch 2.2
_symmetry_space_group_name_H-M    P1
_symmetry_Int_Tables_number       1
_space_group_crystal_system       triclinic
_cell_length_a                    9.562578
_cell_length_b                    10.873452
_cell_length_c                    13.500408
_cell_angle_alpha                 90.739671
_cell_angle_beta                  73.48623
_cell_angle_gamma                 91.096812
_cell_volume                      1345.55854503

loop_
_atom_site_label
_atom_site_type_symbol
_atom_site_description
_atom_site_fract_x
_atom_site_fract_y
_atom_site_fract_z
_atom_type_partial_charge
O1    O     O_R   0.381190 0.680360 0.500000 -0.572680
O2    O     O_R   0.618780 0.680320 0.499990 -0.583654
C1    C     C_R   0.500780 0.737016 0.501240 0.839471
O3    O     O_R   0.323230 0.500000 0.650990 -0.541739
O4    O     O_R   0.560820 0.499960 0.650980 -0.616124
C2    C     C_R   0.423852 0.481261 0.697939 0.829931
Cu1   Cu    Cu3+1 0.359330 0.500020 0.500010 1.011607
Cu2   Cu    Cu3+1 0.640670 0.499980 0.499990 0.957308
O5    O     O_R   0.381220 0.319680 0.500010 -0.566668
O6    O     O_R   0.618810 0.319640 0.500000 -0.602152
O7    O     O_R   0.439180 0.500040 0.349020 -0.571196
O8    O     O_R   0.676770 0.500000 0.349010 -0.590795
C3    C     C_R   0.499329 0.262494 0.499527 0.838106
C4    C     C_R   0.577312 0.502188 0.300629 0.858675
C5    C     C_R   0.806349 0.506644 0.024136 -0.159836
H1    H     H_    0.851948 0.527416 0.169420 0.155948
H2    H     H_    0.856867 0.461587 0.824683 0.201726
H3    H     H_    0.920109 0.516473 0.981049 0.158618
C6    C     C_R   0.620612 0.502270 0.187800 -0.026256
C7    C     C_R   0.239721 0.409784 0.861574 0.362869
C8    C     C_R   0.196678 0.402247 0.968845 -0.169383
C9    C     C_R   0.294225 0.430747 0.025166 -0.208241
C10   C     C_R   0.443508 0.453005 0.974730 0.093177
C11   C     C_R   0.489866 0.446769 0.865235 0.039966
C12   C     C_R   0.549920 0.474987 0.028891 0.091325
C13   C     C_R   0.699847 0.483420 0.973166 0.167273
C14   C     C_R   0.743028 0.461786 0.867641 -0.218834
C15   C     C_R   0.640512 0.435569 0.816125 -0.180095
C16   C     C_R   0.512867 0.488424 0.136514 -0.162148
C17   C     C_R   0.767395 0.513735 0.131168 -0.188962
C18   C     C_R   0.383983 0.445559 0.808983 -0.181574
H4    H     H_    0.400802 0.487832 0.182241 0.147730
H5    H     H_    0.250832 0.426173 0.107756 0.142623
H6    H     H_    0.086584 0.373341 0.009447 0.173827
H7    H     H_    0.683032 0.399472 0.738978 0.190410
C19   C     C_R   0.400285 0.933351 0.470910 -0.006880
C20   C     C_R   0.502064 0.869261 0.503718 -0.059697
C21   C     C_R   0.605167 0.937996 0.538920 -0.181135
H8    H     H_    0.686538 0.892457 0.566481 0.159648
C22   C     C_R   0.603022 0.067365 0.538685 -0.185676
H9    H     H_    0.683125 0.118235 0.566359 0.160059
C23   C     C_R   0.498587 0.129459 0.502434 -0.046224
C24   C     C_R   0.399162 0.057321 0.468753 0.005548
C25   C     C_3   0.281895 0.056460 0.414803 0.111311
C26   C     C_3   0.284793 0.914451 0.418150 0.184811
H10   H     H_    0.177464 0.094606 0.462935 0.051352
H11   H     H_    0.184013 0.871880 0.469570 0.088439
C27   C     C_R   0.960396 0.469100 0.412804 0.249802
N1    N     N_R   0.852320 0.499070 0.499340 -0.189493
C28   C     C_R   0.894194 0.546162 0.581368 -0.098420
H12   H     H_    0.813599 0.583478 0.647427 0.149371
C29   C     C_R   0.042647 0.545214 0.581768 -0.022032
H13   H     H_    0.071745 0.580279 0.648660 0.159603
N2    N     N_R   0.148230 0.499110 0.499340 -0.184146
C30   C     C_R   0.107788 0.469757 0.412642 0.238661
C31   C     C_3   0.132049 0.350019 0.356930 -0.418074
C32   C     C_3   0.973990 0.349935 0.355886 -0.470990
H14   H     H_    0.210811 0.357029 0.279110 0.212341
H15   H     H_    0.155059 0.278587 0.406885 0.221324
H16   H     H_    0.961088 0.360388 0.277168 0.200206
H17   H     H_    0.907228 0.274764 0.402461 0.224843
N3    N     N_R   0.330376 0.105893 0.309767 0.179239
O9    O     O_R   0.452048 0.168548 0.277741 -0.355405
O10   O     O_R   0.245471 0.094681 0.249939 -0.308068
Cl1   Cl    Cl    0.354051 0.836625 0.296641 -0.515368
Cl2   Cl    Cl    0.115477 0.356144 0.796014 -0.675203

loop_
_geom_bond_atom_site_label_1
_geom_bond_atom_site_label_2
_geom_bond_distance
_ccdc_geom_bond_type
O1    C1    1.292767 A    
C5    H3    1.081937 S    
C28   C29   1.421370 A    
C10   C11   1.418551 A    
C5    C13   1.399482 A    
C32   H17   1.111805 S    
C20   C21   1.409079 A    
O4    Cu2   1.963003 S    
C27   C32   1.486693 S    
Cu1   N2    2.021085 S    
C31   H15   1.100438 S    
Cu2   O8    1.968196 S    
C26   Cl1   1.792678 S    
C22   H9    1.083248 S    
C30   C31   1.483822 S    
C26   H11   1.111674 S    
C2    C18   1.492614 S    
O8    C4    1.298514 A    
C11   C18   1.427738 A    
C19   C26   1.484587 S    
O1    Cu1   1.968044 S    
C8    C9    1.389366 A    
C7    C8    1.391530 A    
Cu1   O7    1.963003 S    
C13   C14   1.384225 A    
N3    O9    1.302339 A    
C29   H13   1.080855 S    
O3    Cu1   1.968196 S    
C27   N1    1.362286 A    
O4    C2    1.296082 A    
C4    C6    1.460541 S    
C7    Cl2   1.758712 S    
C19   C20   1.381330 A    
C21   C22   1.407293 A    
C29   N2    1.369414 A    
C28   H12   1.079747 S    
C16   H4    1.073909 S    
O2    C1    1.291943 A    
C10   C12   1.427024 A    
C24   C25   1.500605 S    
C12   C16   1.400636 A    
C21   H8    1.083141 S    
O7    C4    1.296441 A    
C23   C24   1.390679 A    
H1    C17   1.083199 S    
H2    C14   1.078205 S    
Cu1   Cu2   2.690267 S    
C31   C32   1.515500 S    
C1    C20   1.437809 S    
C5    C17   1.387412 A    
O3    C2    1.314024 A    
N1    C28   1.370578 A    
C14   C15   1.377585 A    
Cu1   O5    1.976039 S    
C9    H5    1.074932 S    
O5    C3    1.298029 A    
N2    C30   1.365415 A    
C3    C23   1.447417 S    
C32   H16   1.111632 S    
N3    O10   1.301119 A    
C8    H6    1.082278 S    
C25   H10   1.109746 S    
C27   C30   1.408705 A    
C25   N3    1.466651 S    
C12   C13   1.418954 A    
C9    C10   1.413683 A    
C6    C17   1.398545 A    
Cu2   N1    2.021656 S    
O6    C3    1.291678 A    
Cu2   O6    1.968044 S    
O2    Cu2   1.976039 S    
C25   C26   1.546380 S    
C11   C15   1.411139 A    
C15   H7    1.076552 S    
C31   H14   1.107636 S    
C22   C23   1.415941 A    
C19   C24   1.348991 A    
C7    C18   1.410055 A    
C6    C16   1.400195 A    
