data_mof_unit_pretest_1373.cif
_audit_creation_date              2012-12-10T17:08:24-0500
_audit_creation_method            fapswitch 2.2
_symmetry_space_group_name_H-M    P1
_symmetry_Int_Tables_number       1
_space_group_crystal_system       triclinic
_cell_length_a                    18.290606
_cell_length_b                    18.376979
_cell_length_c                    34.546776
_cell_angle_alpha                 89.999977
_cell_angle_beta                  89.999757
_cell_angle_gamma                 90.129579
_cell_volume                      11612.0427785

loop_
_atom_site_label
_atom_site_type_symbol
_atom_type_description
_atom_site_fract_x
_atom_site_fract_y
_atom_site_fract_z
_atom_type_partial_charge
C1    C     C_R   0.000001 0.499997 0.894274 0.840676
C2    C     C_R   0.500000 1.000000 0.894311 0.877829
C3    C     C_R   0.500000 1.000000 0.394257 0.881432
C4    C     C_R   0.000000 0.500000 0.394316 0.876545
C5    C     C_R   0.500000 1.000000 0.851895 -0.154598
C6    C     C_R   0.000005 0.500000 0.851960 -0.191567
C7    C     C_R   0.000000 0.500000 0.351914 -0.154167
C8    C     C_R   0.500000 1.000000 0.351853 -0.153067
C9    C     C_R   0.550740 0.955481 0.791077 -0.046768
C10   C     C_R   0.058785 0.533475 0.791091 -0.019913
C11   C     C_R   0.449261 0.044518 0.791077 -0.046767
C12   C     C_R   0.941224 0.466532 0.791091 -0.019947
C13   C     C_R   0.051611 0.456547 0.291094 -0.046727
C14   C     C_R   0.544542 0.050837 0.291050 -0.045875
C15   C     C_R   0.948388 0.543452 0.291094 -0.046726
C16   C     C_R   0.455458 0.949163 0.291050 -0.045875
C17   C     C_R   0.500000 0.999999 0.770756 -0.084550
C18   C     C_R   0.000003 0.500006 0.770864 -0.103000
C19   C     C_R   1.000000 0.500000 0.270765 -0.082639
C20   C     C_R   0.500000 0.000000 0.270730 -0.083067
C21   C     C_R   0.604782 0.917144 0.769782 0.518456
C22   C     C_R   0.118333 0.563452 0.769948 0.529334
C23   C     C_R   0.395219 0.082855 0.769782 0.518458
C24   C     C_R   0.881675 0.436554 0.769948 0.529337
C25   C     C_R   0.106638 0.419598 0.269837 0.517607
C26   C     C_R   0.582532 0.105211 0.269794 0.517586
C27   C     C_R   0.893361 0.580401 0.269838 0.517608
C28   C     C_R   0.417468 0.894788 0.269794 0.517586
C29   C     C_R   0.103636 0.418117 0.229540 -0.277606
C30   C     C_R   0.583904 0.102213 0.229505 -0.277821
C31   C     C_R   0.896363 0.581881 0.229541 -0.277606
C32   C     C_R   0.416095 0.897787 0.229505 -0.277820
C33   C     C_R   0.601403 0.915422 0.729498 -0.279694
C34   C     C_R   0.119691 0.557009 0.729765 -0.289773
C35   C     C_R   0.398599 0.084577 0.729498 -0.279698
C36   C     C_R   0.880312 0.443003 0.729767 -0.289735
C37   C     C_R   0.050040 0.456442 0.209272 -0.061206
C38   C     C_R   0.544521 0.049323 0.209260 -0.060964
C39   C     C_R   0.949959 0.543557 0.209273 -0.061206
C40   C     C_R   0.455478 0.950677 0.209260 -0.060964
C41   C     C_R   0.548728 0.955012 0.709268 -0.061698
C42   C     C_R   0.061222 0.525968 0.709639 -0.059402
C43   C     C_R   0.451274 0.044987 0.709268 -0.061696
C44   C     C_R   0.938779 0.474046 0.709639 -0.059419
C45   C     C_R   1.000000 0.499999 0.229791 -0.048074
C46   C     C_R   0.500000 0.000000 0.229774 -0.048092
C47   C     C_R   0.500001 0.999999 0.729788 -0.048566
C48   C     C_R   0.000001 0.500007 0.730071 -0.052978
C49   C     C_R   0.046249 0.452210 0.168605 0.425925
C50   C     C_R   0.548708 0.045498 0.168610 0.426072
C51   C     C_R   0.953750 0.547789 0.168606 0.425926
C52   C     C_R   0.451291 0.954502 0.168610 0.426072
C53   C     C_R   0.544587 0.950642 0.668626 0.425536
C54   C     C_R   0.063932 0.519287 0.669198 0.436216
C55   C     C_R   0.455417 0.049359 0.668627 0.425527
C56   C     C_R   0.936068 0.480725 0.669199 0.436218
C57   C     C_R   1.000000 0.500000 0.148283 -0.265501
C58   C     C_R   0.499999 0.000000 0.148299 -0.266707
C59   C     C_R   0.500001 0.000000 0.648289 -0.268268
C60   C     C_R   1.000000 0.500004 0.648617 -0.287865
C61   C     C_R   0.000000 0.500000 0.105790 0.925552
C62   C     C_R   0.500000 0.000000 0.105833 0.927115
C63   C     C_R   0.500001 0.000000 0.605793 0.923648
C64   C     C_R   1.000000 0.500001 0.605951 0.874846
C65   C     C_R   0.861065 0.641439 0.999433 0.865322
C66   C     C_R   0.358603 0.861086 0.999631 0.866554
C67   C     C_R   0.138935 0.358560 0.999433 0.865317
C68   C     C_R   0.641396 0.138914 0.999631 0.866557
C69   C     C_R   0.143104 0.637049 0.001407 0.822768
C70   C     C_R   0.636942 0.856868 0.001640 0.816250
C71   C     C_R   0.856897 0.362950 0.001407 0.822751
C72   C     C_R   0.363057 0.143132 0.001640 0.816252
C73   C     C_R   0.361104 0.141430 0.499433 0.866188
C74   C     C_R   0.859492 0.360645 0.500046 0.865751
C75   C     C_R   0.638896 0.858570 0.499433 0.866193
C76   C     C_R   0.140508 0.639355 0.500045 0.865742
C77   C     C_R   0.642257 0.138204 0.500587 0.814170
C78   C     C_R   0.136988 0.356961 0.501854 0.815530
C79   C     C_R   0.357743 0.861795 0.500587 0.814175
C80   C     C_R   0.863011 0.643038 0.501854 0.815532
C81   C     C_R   0.272382 0.640414 0.943865 0.290682
C82   C     C_R   0.365222 0.276045 0.947021 0.296244
C83   C     C_R   0.727627 0.359578 0.943860 0.290725
C84   C     C_R   0.634783 0.723958 0.947019 0.296242
C85   C     C_R   0.780125 0.688311 0.928566 0.285195
C86   C     C_R   0.693752 0.213198 0.928222 0.295103
C87   C     C_R   0.219884 0.311699 0.928565 0.285186
C88   C     C_R   0.306255 0.786793 0.928223 0.295099
C89   C     C_R   0.756456 0.156609 0.435489 0.284976
C90   C     C_R   0.869035 0.779719 0.450631 0.302624
C91   C     C_R   0.243552 0.843383 0.435486 0.284974
C92   C     C_R   0.130963 0.220279 0.450632 0.302625
C93   C     C_R   0.275183 0.185224 0.429564 0.293944
C94   C     C_R   0.207341 0.695458 0.427947 0.284104
C95   C     C_R   0.724815 0.814773 0.429564 0.293937
C96   C     C_R   0.792667 0.304533 0.427946 0.284111
C97   C     C_R   0.297150 0.661769 0.906917 -0.221312
C98   C     C_R   0.347261 0.303909 0.910244 -0.216054
C99   C     C_R   0.702866 0.338219 0.906912 -0.221243
C100  C     C_R   0.652750 0.696097 0.910241 -0.216060
C101  C     C_R   0.725169 0.682337 0.900565 -0.286556
C102  C     C_R   0.689951 0.265228 0.898735 -0.297604
C103  C     C_R   0.274844 0.317672 0.900565 -0.286567
C104  C     C_R   0.310064 0.734760 0.898738 -0.297582
C105  C     C_R   0.772766 0.186529 0.398931 -0.214088
C106  C     C_R   0.853651 0.809936 0.414016 -0.214971
C107  C     C_R   0.227248 0.813459 0.398928 -0.214084
C108  C     C_R   0.146346 0.190060 0.414018 -0.214971
C109  C     C_R   0.218208 0.176885 0.402894 -0.296634
C110  C     C_R   0.213014 0.739533 0.395085 -0.282715
C111  C     C_R   0.781789 0.823111 0.402892 -0.296634
C112  C     C_R   0.786999 0.260454 0.395086 -0.282718
C113  C     C_R   0.286909 0.764360 0.966286 -0.010778
C114  C     C_R   0.238782 0.289335 0.966728 -0.009184
C115  C     C_R   0.713095 0.235635 0.966285 -0.010787
C116  C     C_R   0.761219 0.710667 0.966729 -0.009182
C117  C     C_R   0.692862 0.743615 0.972626 -0.072739
C118  C     C_R   0.745568 0.304250 0.971271 -0.073693
C119  C     C_R   0.307139 0.256385 0.972626 -0.072736
C120  C     C_R   0.254436 0.695746 0.971273 -0.073699
C121  C     C_R   0.779451 0.273599 0.465092 -0.004653
C122  C     C_R   0.741229 0.791376 0.467787 -0.005011
C123  C     C_R   0.220554 0.726396 0.465092 -0.004654
C124  C     C_R   0.258770 0.208623 0.467788 -0.005009
C125  C     C_R   0.190841 0.241511 0.474666 -0.074621
C126  C     C_R   0.254245 0.794959 0.467337 -0.084498
C127  C     C_R   0.809158 0.758488 0.474665 -0.074620
C128  C     C_R   0.745761 0.205036 0.467338 -0.084494
C129  C     C_R   0.206595 0.686350 0.003598 -0.227525
C130  C     C_R   0.313804 0.206481 0.004119 -0.227535
C131  C     C_R   0.793406 0.313648 0.003597 -0.227509
C132  C     C_R   0.686194 0.793518 0.004120 -0.227535
C133  C     C_R   0.806744 0.700280 0.999362 -0.199507
C134  C     C_R   0.700666 0.192784 0.999577 -0.197828
C135  C     C_R   0.193255 0.299719 0.999360 -0.199511
C136  C     C_R   0.299334 0.807215 0.999577 -0.197828
C137  C     C_R   0.704832 0.188737 0.501607 -0.214841
C138  C     C_R   0.812786 0.705463 0.504810 -0.228325
C139  C     C_R   0.295168 0.811262 0.501606 -0.214840
C140  C     C_R   0.187212 0.294536 0.504810 -0.228326
C141  C     C_R   0.306948 0.200326 0.499453 -0.201837
C142  C     C_R   0.199033 0.693142 0.500093 -0.195938
C143  C     C_R   0.693052 0.799673 0.499453 -0.201837
C144  C     C_R   0.800966 0.306858 0.500093 -0.195951
C145  C     C_R   0.213291 0.732371 0.035928 0.178320
C146  C     C_R   0.265748 0.211805 0.035733 0.178291
C147  C     C_R   0.786708 0.267629 0.035928 0.178315
C148  C     C_R   0.734248 0.788193 0.035734 0.178293
C149  C     C_R   0.793362 0.740490 0.033837 0.158506
C150  C     C_R   0.739383 0.208140 0.034285 0.155869
C151  C     C_R   0.206634 0.259507 0.033835 0.158511
C152  C     C_R   0.260616 0.791860 0.034286 0.155872
C153  C     C_R   0.719760 0.226913 0.536132 0.181280
C154  C     C_R   0.760004 0.706345 0.534650 0.181298
C155  C     C_R   0.280233 0.773093 0.536132 0.181259
C156  C     C_R   0.239995 0.293655 0.534650 0.181301
C157  C     C_R   0.297316 0.243948 0.533034 0.153951
C158  C     C_R   0.228467 0.717125 0.535801 0.140169
C159  C     C_R   0.702683 0.756052 0.533034 0.153954
C160  C     C_R   0.771525 0.282882 0.535800 0.140147
C161  C     C_R   0.453149 0.047793 0.831896 0.115325
C162  C     C_R   0.943964 0.462794 0.831746 0.135017
C163  C     C_R   0.546852 0.952206 0.831896 0.115326
C164  C     C_R   0.056048 0.537206 0.831746 0.134992
C165  C     C_R   0.952462 0.547128 0.331898 0.116273
C166  C     C_R   0.451802 0.953344 0.331842 0.116361
C167  C     C_R   0.047538 0.452872 0.331898 0.116273
C168  C     C_R   0.548200 0.046655 0.331842 0.116360
H1    H     H_    0.307414 0.622532 0.884266 0.172774
H2    H     H_    0.388712 0.315914 0.888869 0.161306
H3    H     H_    0.692607 0.377453 0.884259 0.172757
H4    H     H_    0.611302 0.684093 0.888865 0.161307
H5    H     H_    0.738203 0.664347 0.871525 0.157474
H6    H     H_    0.674412 0.249496 0.869660 0.147305
H7    H     H_    0.261814 0.335667 0.871526 0.157471
H8    H     H_    0.325607 0.750488 0.869664 0.147313
H9    H     H_    0.776762 0.153004 0.373316 0.165745
H10   H     H_    0.896588 0.823519 0.393758 0.158492
H11   H     H_    0.223256 0.846981 0.373312 0.165748
H12   H     H_    0.103409 0.176476 0.393761 0.158491
H13   H     H_    0.229311 0.157871 0.373814 0.154488
H14   H     H_    0.202788 0.717193 0.366579 0.151807
H15   H     H_    0.770685 0.842124 0.373813 0.154489
H16   H     H_    0.797229 0.282791 0.366579 0.151808
H17   H     H_    0.144742 0.387101 0.214195 0.201434
H18   H     H_    0.615769 0.142705 0.214143 0.201193
H19   H     H_    0.855257 0.612898 0.214196 0.201434
H20   H     H_    0.384230 0.857296 0.214144 0.201193
H21   H     H_    0.641537 0.883233 0.714114 0.201044
H22   H     H_    0.167280 0.576777 0.714340 0.198415
H23   H     H_    0.358466 0.116766 0.714114 0.201045
H24   H     H_    0.832721 0.423233 0.714343 0.198434
O1    O     O_3   0.000000 0.500000 0.999990 -0.485045
O2    O     O_3   0.500000 0.000000 0.999990 -0.489320
O3    O     O_3   0.500000 0.000000 0.499990 -0.488896
O4    O     O_3   0.000000 0.500000 0.499990 -0.489640
O5    O     O_R   0.060750 0.500000 0.912560 -0.648385
O6    O     O_R   0.500000 0.060750 0.912560 -0.628769
O7    O     O_R   0.939250 0.500000 0.912560 -0.648405
O8    O     O_R   0.500000 0.939250 0.912560 -0.628769
O9    O     O_R   0.560750 0.000000 0.412560 -0.627303
O10   O     O_R   0.000000 0.560750 0.412560 -0.627242
O11   O     O_R   0.439250 0.000000 0.412560 -0.627298
O12   O     O_R   1.000000 0.439250 0.412560 -0.627242
O13   O     O_R   0.000000 0.560690 0.087420 -0.644420
O14   O     O_R   0.439310 0.000000 0.087420 -0.643696
O15   O     O_R   1.000000 0.439310 0.087420 -0.644418
O16   O     O_R   0.560690 0.000000 0.087420 -0.643696
O17   O     O_R   0.500000 0.060690 0.587420 -0.641962
O18   O     O_R   0.939310 0.500000 0.587420 -0.623938
O19   O     O_R   0.500000 0.939310 0.587420 -0.641981
O20   O     O_R   0.060690 0.500000 0.587420 -0.623928
O21   O     O_R   0.853830 0.585440 0.977070 -0.624915
O22   O     O_R   0.414560 0.853830 0.977070 -0.624412
O23   O     O_R   0.146170 0.414560 0.977070 -0.624909
O24   O     O_R   0.585440 0.146170 0.977070 -0.624414
O25   O     O_R   0.146170 0.585440 0.977070 -0.625640
O26   O     O_R   0.585440 0.853830 0.977070 -0.626079
O27   O     O_R   0.853830 0.414560 0.977070 -0.625658
O28   O     O_R   0.414560 0.146170 0.977070 -0.626076
O29   O     O_R   0.353830 0.085440 0.477070 -0.626970
O30   O     O_R   0.914560 0.353830 0.477070 -0.626154
O31   O     O_R   0.646170 0.914560 0.477070 -0.626972
O32   O     O_R   0.085440 0.646170 0.477070 -0.626156
O33   O     O_R   0.646170 0.085440 0.477070 -0.631256
O34   O     O_R   0.085440 0.353830 0.477070 -0.624608
O35   O     O_R   0.353830 0.914560 0.477070 -0.631262
O36   O     O_R   0.914560 0.646170 0.477070 -0.624607
O37   O     O_R   0.085460 0.353830 0.022910 -0.647306
O38   O     O_R   0.646170 0.085460 0.022910 -0.647687
O39   O     O_R   0.914540 0.646170 0.022910 -0.647302
O40   O     O_R   0.353830 0.914540 0.022910 -0.647689
O41   O     O_R   0.914540 0.353830 0.022910 -0.641189
O42   O     O_R   0.353830 0.085460 0.022910 -0.641628
O43   O     O_R   0.085460 0.646170 0.022910 -0.641185
O44   O     O_R   0.646170 0.914540 0.022910 -0.641627
O45   O     O_R   0.585460 0.853830 0.522910 -0.645974
O46   O     O_R   0.146170 0.585460 0.522910 -0.647307
O47   O     O_R   0.414540 0.146170 0.522910 -0.645973
O48   O     O_R   0.853830 0.414540 0.522910 -0.647302
O49   O     O_R   0.414540 0.853830 0.522910 -0.641911
O50   O     O_R   0.853830 0.585460 0.522910 -0.643749
O51   O     O_R   0.585460 0.146170 0.522910 -0.641921
O52   O     O_R   0.146170 0.414540 0.522910 -0.643751
Zn1   Zn    Zn3+2 0.000000 0.586740 0.032740 0.941515
Zn2   Zn    Zn3+2 0.413260 1.000000 0.032740 0.940226
Zn3   Zn    Zn3+2 0.000000 0.413260 0.032740 0.941501
Zn4   Zn    Zn3+2 0.586740 1.000000 0.032740 0.940225
Zn5   Zn    Zn3+2 0.500000 0.086740 0.532740 0.940081
Zn6   Zn    Zn3+2 0.913260 0.500000 0.532740 0.934485
Zn7   Zn    Zn3+2 0.500000 0.913260 0.532740 0.940074
Zn8   Zn    Zn3+2 0.086740 0.500000 0.532740 0.934493
Zn9   Zn    Zn3+2 0.913250 0.500000 0.967240 0.966622
Zn10  Zn    Zn3+2 0.500000 0.913250 0.967240 0.972539
Zn11  Zn    Zn3+2 0.086750 0.500000 0.967240 0.966640
Zn12  Zn    Zn3+2 0.500000 0.086750 0.967240 0.972540
Zn13  Zn    Zn3+2 0.413250 0.000000 0.467240 0.970511
Zn14  Zn    Zn3+2 0.000000 0.413250 0.467240 0.970725
Zn15  Zn    Zn3+2 0.586750 0.000000 0.467240 0.970509
Zn16  Zn    Zn3+2 0.000000 0.586750 0.467240 0.970725
N1    N     N_2   0.181574 0.712939 0.072270 -0.276938
H25   H     H_    0.179369 0.657998 0.078335 0.213744
C169  C     C_3   0.118156 0.753771 0.084723 -0.693020
H26   H     H_    0.071530 0.716191 0.089230 0.224491
H27   H     H_    0.101574 0.795290 0.063053 0.233014
H28   H     H_    0.130351 0.780828 0.112690 0.224749
N2    N     N_2   0.283043 0.178617 0.071950 -0.276676
H29   H     H_    0.337848 0.176137 0.078900 0.215138
C170  C     C_3   0.240949 0.115086 0.082966 -0.694513
H30   H     H_    0.278147 0.068381 0.087309 0.223955
H31   H     H_    0.200094 0.099850 0.060548 0.232812
H32   H     H_    0.212610 0.125915 0.110747 0.224282
N3    N     N_2   0.818423 0.287062 0.072270 -0.276938
H33   H     H_    0.820628 0.342004 0.078334 0.213744
C171  C     C_3   0.881840 0.246231 0.084724 -0.693021
H34   H     H_    0.928466 0.283811 0.089231 0.224492
H35   H     H_    0.898423 0.204711 0.063055 0.233014
H36   H     H_    0.869644 0.219175 0.112691 0.224750
N4    N     N_2   0.716951 0.821380 0.071952 -0.276675
H37   H     H_    0.662146 0.823862 0.078900 0.215138
C172  C     C_3   0.759045 0.884911 0.082968 -0.694512
H38   H     H_    0.721847 0.931617 0.087310 0.223957
H39   H     H_    0.799903 0.900146 0.060550 0.232811
H40   H     H_    0.787382 0.874082 0.110750 0.224281
N5    N     N_2   0.837440 0.732824 0.067574 -0.269840
H41   H     H_    0.842872 0.680966 0.078551 0.253451
C173  C     C_3   0.901787 0.779020 0.069705 -0.737791
H42   H     H_    0.902047 0.808484 0.097709 0.214317
H43   H     H_    0.903404 0.819560 0.045810 0.228517
H44   H     H_    0.952011 0.745636 0.068143 0.249980
N6    N     N_2   0.731734 0.164715 0.068181 -0.269032
H45   H     H_    0.679438 0.158110 0.078750 0.254381
C174  C     C_3   0.778918 0.101454 0.070485 -0.738636
H46   H     H_    0.808652 0.101964 0.098446 0.214110
H47   H     H_    0.819661 0.100191 0.046585 0.228292
H48   H     H_    0.745938 0.050982 0.069037 0.248967
N7    N     N_2   0.162555 0.267172 0.067572 -0.269840
H49   H     H_    0.157124 0.319029 0.078551 0.253452
C175  C     C_3   0.098208 0.220977 0.069702 -0.737794
H50   H     H_    0.097945 0.191513 0.097706 0.214317
H51   H     H_    0.096591 0.180436 0.045808 0.228517
H52   H     H_    0.047984 0.254361 0.068140 0.249983
N8    N     N_2   0.268264 0.835286 0.068181 -0.269033
H53   H     H_    0.320560 0.841891 0.078750 0.254381
C176  C     C_3   0.221080 0.898547 0.070485 -0.738640
H54   H     H_    0.191346 0.898038 0.098446 0.214111
H55   H     H_    0.180338 0.899810 0.046585 0.228292
H56   H     H_    0.254060 0.949018 0.069036 0.248968
N9    N     N_2   0.691656 0.202339 0.572392 -0.273574
H57   H     H_    0.687564 0.146696 0.575759 0.212090
C177  C     C_3   0.630993 0.243022 0.588399 -0.713647
H58   H     H_    0.582187 0.207479 0.590518 0.232263
H59   H     H_    0.616481 0.290805 0.570244 0.227658
H60   H     H_    0.645338 0.261813 0.617949 0.225112
N10   N     N_2   0.768194 0.663516 0.568843 -0.275978
H61   H     H_    0.820399 0.658605 0.579789 0.213213
C178  C     C_3   0.722585 0.599104 0.571970 -0.710105
H62   H     H_    0.756889 0.549427 0.571589 0.244465
H63   H     H_    0.682709 0.595044 0.547785 0.232541
H64   H     H_    0.692450 0.600598 0.599810 0.215389
N11   N     N_2   0.308325 0.797677 0.572393 -0.273570
H65   H     H_    0.312403 0.853321 0.575757 0.212075
C179  C     C_3   0.369003 0.757016 0.588400 -0.713648
H66   H     H_    0.417784 0.792589 0.590542 0.232265
H67   H     H_    0.383564 0.709265 0.570232 0.227634
H68   H     H_    0.354646 0.738180 0.617940 0.225132
N12   N     N_2   0.231805 0.336484 0.568844 -0.275978
H69   H     H_    0.179599 0.341396 0.579789 0.213213
C180  C     C_3   0.277414 0.400895 0.571971 -0.710099
H70   H     H_    0.243111 0.450572 0.571588 0.244460
H71   H     H_    0.317293 0.404953 0.547786 0.232545
H72   H     H_    0.307546 0.399402 0.599812 0.215387
N13   N     N_2   0.342689 0.237259 0.566405 -0.271732
H73   H     H_    0.345662 0.186257 0.578718 0.251285
C181  C     C_3   0.409498 0.280055 0.566881 -0.717944
H74   H     H_    0.410183 0.314952 0.593057 0.214586
H75   H     H_    0.414548 0.315129 0.540780 0.227064
H76   H     H_    0.457874 0.243868 0.568194 0.248525
N14   N     N_2   0.202784 0.689342 0.571903 -0.277056
H77   H     H_    0.146780 0.685778 0.574883 0.217007
C182  C     C_3   0.242779 0.628445 0.588012 -0.646986
H78   H     H_    0.258681 0.641232 0.618240 0.230778
H79   H     H_    0.292684 0.615619 0.570986 0.207537
H80   H     H_    0.207598 0.579306 0.588400 0.272708
N15   N     N_2   0.657310 0.762743 0.566406 -0.271734
H81   H     H_    0.654338 0.813746 0.578718 0.251285
C183  C     C_3   0.590502 0.719946 0.566884 -0.717951
H82   H     H_    0.589817 0.685054 0.593061 0.214586
H83   H     H_    0.585453 0.684867 0.540785 0.227064
H84   H     H_    0.542125 0.756132 0.568194 0.248530
N16   N     N_2   0.797195 0.310673 0.571902 -0.277033
H85   H     H_    0.853199 0.314225 0.574888 0.217003
C184  C     C_3   0.757209 0.371592 0.587995 -0.646999
H86   H     H_    0.741216 0.358798 0.618209 0.230752
H87   H     H_    0.707362 0.384474 0.570934 0.207525
H88   H     H_    0.792431 0.420701 0.588417 0.272745
N17   N     N_2   0.275980 0.565790 0.955936 -0.261972
H89   H     H_    0.287428 0.558125 0.984900 0.213740
C185  C     C_3   0.305939 0.510673 0.930574 -0.761394
H90   H     H_    0.303715 0.456968 0.945264 0.246662
H91   H     H_    0.363916 0.523284 0.923656 0.220360
H92   H     H_    0.272937 0.506622 0.903678 0.239493
N18   N     N_2   0.439229 0.277388 0.960829 -0.262560
H93   H     H_    0.444984 0.286783 0.990121 0.209648
C186  C     C_3   0.497552 0.306720 0.937107 -0.748174
H94   H     H_    0.502327 0.275291 0.909770 0.243323
H95   H     H_    0.550327 0.301838 0.952787 0.244400
H96   H     H_    0.487585 0.365177 0.930903 0.215787
N19   N     N_2   0.724025 0.434203 0.955928 -0.261976
H97   H     H_    0.712570 0.441871 0.984892 0.213739
C187  C     C_3   0.694073 0.489318 0.930563 -0.761394
H98   H     H_    0.727081 0.493365 0.903668 0.239496
H99   H     H_    0.696294 0.543024 0.945251 0.246665
H100  H     H_    0.636097 0.476706 0.923642 0.220355
N20   N     N_2   0.560774 0.722613 0.960824 -0.262558
H101  H     H_    0.555015 0.713217 0.990116 0.209653
C188  C     C_3   0.502455 0.693281 0.937099 -0.748178
H102  H     H_    0.497682 0.724711 0.909762 0.243320
H103  H     H_    0.449678 0.698161 0.952778 0.244408
H104  H     H_    0.512424 0.634824 0.930895 0.215789
N21   N     N_2   0.854292 0.677354 0.917288 -0.283965
H105  H     H_    0.860843 0.646080 0.892723 0.227082
C189  C     C_3   0.898197 0.742939 0.916414 -0.833577
H106  H     H_    0.955374 0.729061 0.908761 0.232284
H107  H     H_    0.898685 0.769806 0.945204 0.247314
H108  H     H_    0.876469 0.781318 0.894393 0.240133
N22   N     N_2   0.683923 0.138254 0.918790 -0.287612
H109  H     H_    0.655007 0.128880 0.893623 0.221531
C190  C     C_3   0.749807 0.094948 0.921183 -0.846756
H110  H     H_    0.736057 0.036697 0.917078 0.233464
H111  H     H_    0.776025 0.100559 0.950020 0.250855
H112  H     H_    0.789095 0.111964 0.898357 0.238747
N23   N     N_2   0.145721 0.322672 0.917284 -0.283938
H113  H     H_    0.139178 0.353952 0.892722 0.227090
C191  C     C_3   0.101799 0.257098 0.916406 -0.833589
H114  H     H_    0.044627 0.270992 0.908750 0.232297
H115  H     H_    0.101299 0.230227 0.945195 0.247310
H116  H     H_    0.123523 0.218717 0.894385 0.240129
N24   N     N_2   0.316082 0.861736 0.918789 -0.287608
H117  H     H_    0.345000 0.871109 0.893622 0.221534
C192  C     C_3   0.250197 0.905040 0.921179 -0.846756
H118  H     H_    0.263944 0.963291 0.917072 0.233463
H119  H     H_    0.223977 0.899432 0.950016 0.250852
H120  H     H_    0.210911 0.888019 0.898353 0.238752
N25   N     N_2   0.765086 0.080152 0.442395 -0.252653
H121  H     H_    0.785896 0.067129 0.469283 0.219879
C193  C     C_3   0.787767 0.031694 0.411645 -0.767654
H122  H     H_    0.790126 0.975188 0.422890 0.246808
H123  H     H_    0.843004 0.047120 0.401038 0.218955
H124  H     H_    0.747469 0.032670 0.387641 0.239856
N26   N     N_2   0.942124 0.779047 0.465742 -0.265443
H125  H     H_    0.946295 0.786461 0.495267 0.204437
C194  C     C_3   0.002490 0.808126 0.443394 -0.748089
H126  H     H_    0.054278 0.800961 0.459744 0.240057
H127  H     H_    0.994361 0.867138 0.437977 0.215256
H128  H     H_    0.007932 0.778128 0.415639 0.245668
N27   N     N_2   0.234920 0.919840 0.442389 -0.252646
H129  H     H_    0.214110 0.932865 0.469277 0.219887
C195  C     C_3   0.212231 0.968293 0.411639 -0.767675
H130  H     H_    0.209867 0.024799 0.422882 0.246806
H131  H     H_    0.156995 0.952860 0.401033 0.218963
H132  H     H_    0.252527 0.967318 0.387633 0.239853
N28   N     N_2   0.057875 0.220952 0.465745 -0.265444
H133  H     H_    0.053703 0.213541 0.495269 0.204436
C196  C     C_3   0.997508 0.191873 0.443397 -0.748088
H134  H     H_    0.992066 0.221868 0.415642 0.245668
H135  H     H_    0.945720 0.199038 0.459748 0.240056
H136  H     H_    0.005637 0.132860 0.437981 0.215257
N29   N     N_2   0.348834 0.176960 0.416803 -0.283293
H137  H     H_    0.354889 0.146015 0.392089 0.225822
C197  C     C_3   0.390132 0.244218 0.415267 -0.842174
H138  H     H_    0.448026 0.232351 0.408429 0.231065
H139  H     H_    0.388946 0.272728 0.443596 0.247948
H140  H     H_    0.367459 0.280522 0.392532 0.240135
N30   N     N_2   0.192695 0.619768 0.423152 -0.293205
H141  H     H_    0.166520 0.606643 0.397631 0.216287
C198  C     C_3   0.254267 0.572737 0.431097 -0.837141
H142  H     H_    0.236397 0.515063 0.429794 0.234157
H143  H     H_    0.276507 0.582973 0.460513 0.251985
H144  H     H_    0.298003 0.581721 0.409274 0.237106
N31   N     N_2   0.651164 0.823038 0.416804 -0.283294
H145  H     H_    0.645108 0.853982 0.392089 0.225820
C199  C     C_3   0.609864 0.755780 0.415268 -0.842175
H146  H     H_    0.551970 0.767648 0.408432 0.231067
H147  H     H_    0.611052 0.727270 0.443598 0.247948
H148  H     H_    0.632536 0.719476 0.392533 0.240136
N32   N     N_2   0.807310 0.380223 0.423149 -0.293200
H149  H     H_    0.833487 0.393347 0.397628 0.216290
C200  C     C_3   0.745736 0.427253 0.431092 -0.837153
H150  H     H_    0.763604 0.484928 0.429788 0.234158
H151  H     H_    0.723494 0.417018 0.460508 0.251981
H152  H     H_    0.702002 0.418265 0.409269 0.237108
N33   N     N_2   0.412700 0.100566 0.853377 -0.255392
H153  H     H_    0.412429 0.153390 0.843329 0.260338
C201  C     C_3   0.347713 0.075844 0.873504 -0.692088
H154  H     H_    0.354620 0.084677 0.905061 0.235439
H155  H     H_    0.337065 0.017160 0.868075 0.208232
H156  H     H_    0.299514 0.107602 0.863879 0.242819
N34   N     N_2   0.890903 0.420110 0.851912 -0.236469
H157  H     H_    0.854006 0.448123 0.868775 0.262469
C202  C     C_3   0.915718 0.351275 0.867348 -0.738563
H158  H     H_    0.949777 0.359911 0.893497 0.220337
H159  H     H_    0.947760 0.321130 0.845249 0.223290
H160  H     H_    0.867624 0.317688 0.875554 0.239689
N35   N     N_2   0.587300 0.899433 0.853377 -0.255393
H161  H     H_    0.587572 0.846609 0.843329 0.260337
C203  C     C_3   0.652287 0.924155 0.873505 -0.692091
H162  H     H_    0.645379 0.915321 0.905062 0.235441
H163  H     H_    0.662934 0.982840 0.868076 0.208232
H164  H     H_    0.700486 0.892399 0.863879 0.242819
N36   N     N_2   0.109123 0.579868 0.851913 -0.236474
H165  H     H_    0.145993 0.551838 0.868784 0.262449
C204  C     C_3   0.084331 0.648714 0.867344 -0.738245
H166  H     H_    0.050024 0.640085 0.893404 0.220182
H167  H     H_    0.052548 0.678981 0.845190 0.223332
H168  H     H_    0.132427 0.682176 0.875687 0.239659
N37   N     N_2   0.912097 0.600199 0.353234 -0.255618
H169  H     H_    0.911063 0.652637 0.342642 0.260472
C205  C     C_3   0.847712 0.575825 0.374023 -0.690253
H170  H     H_    0.855114 0.586336 0.405401 0.236211
H171  H     H_    0.837435 0.516825 0.369511 0.207391
H172  H     H_    0.799026 0.606640 0.364214 0.242744
N38   N     N_2   0.398184 0.913468 0.353239 -0.259277
H173  H     H_    0.345592 0.912587 0.342532 0.251269
C206  C     C_3   0.422337 0.848691 0.373406 -0.687732
H174  H     H_    0.414215 0.855922 0.404991 0.236542
H175  H     H_    0.480948 0.837407 0.367630 0.207284
H176  H     H_    0.389489 0.800983 0.364078 0.243889
N39   N     N_2   0.087903 0.399800 0.353234 -0.255618
H177  H     H_    0.088937 0.347363 0.342641 0.260472
C207  C     C_3   0.152287 0.424173 0.374023 -0.690250
H178  H     H_    0.144885 0.413662 0.405400 0.236211
H179  H     H_    0.162565 0.483174 0.369510 0.207389
H180  H     H_    0.200973 0.393359 0.364213 0.242743
N40   N     N_2   0.601819 0.086530 0.353238 -0.259280
H181  H     H_    0.654411 0.087409 0.342531 0.251268
C208  C     C_3   0.577669 0.151306 0.373406 -0.687726
H182  H     H_    0.585791 0.144075 0.404991 0.236544
H183  H     H_    0.519057 0.162592 0.367631 0.207281
H184  H     H_    0.610517 0.199014 0.364077 0.243889
O53   O     O_3   0.660640 0.879707 0.787924 -0.614477
C209  C     C_3   0.726493 0.918986 0.783246 -0.341878
H185  H     H_    0.721413 0.975660 0.794359 0.163419
H186  H     H_    0.744631 0.919407 0.752531 0.165147
H187  H     H_    0.769876 0.891676 0.800297 0.187566
O54   O     O_3   0.179502 0.591023 0.788615 -0.596569
C210  C     C_3   0.186371 0.666092 0.780628 -0.311608
H188  H     H_    0.133652 0.695573 0.784314 0.156847
H189  H     H_    0.208526 0.675202 0.751082 0.155392
H190  H     H_    0.225852 0.689959 0.801475 0.190986
O55   O     O_3   0.339361 0.120293 0.787924 -0.614476
C211  C     C_3   0.273508 0.081015 0.783246 -0.341880
H191  H     H_    0.278587 0.024341 0.794357 0.163419
H192  H     H_    0.255370 0.080596 0.752530 0.165146
H193  H     H_    0.230125 0.108325 0.800297 0.187565
O56   O     O_3   0.820510 0.408975 0.788615 -0.596593
C212  C     C_3   0.813691 0.333893 0.780650 -0.311626
H194  H     H_    0.866414 0.304441 0.784388 0.156987
H195  H     H_    0.791620 0.324733 0.751091 0.155375
H196  H     H_    0.774164 0.310036 0.801476 0.190948
O57   O     O_3   0.163361 0.383570 0.288025 -0.614828
C213  C     C_3   0.227893 0.425198 0.283998 -0.342177
H197  H     H_    0.220742 0.481230 0.295689 0.164466
H198  H     H_    0.246346 0.427399 0.253352 0.165936
H199  H     H_    0.271987 0.398734 0.300915 0.186216
O58   O     O_3   0.619859 0.161124 0.287973 -0.617610
C214  C     C_3   0.579757 0.226181 0.283630 -0.343983
H200  H     H_    0.522958 0.220222 0.294853 0.166005
H201  H     H_    0.578917 0.244602 0.252979 0.166504
H202  H     H_    0.606946 0.269508 0.300777 0.186319
O59   O     O_3   0.836639 0.616430 0.288025 -0.614828
C215  C     C_3   0.772106 0.574801 0.283999 -0.342178
H203  H     H_    0.779257 0.518770 0.295689 0.164467
H204  H     H_    0.753653 0.572602 0.253352 0.165936
H205  H     H_    0.728012 0.601266 0.300916 0.186216
O60   O     O_3   0.380141 0.838875 0.287974 -0.617612
C216  C     C_3   0.420243 0.773818 0.283629 -0.343983
H206  H     H_    0.477043 0.779778 0.294852 0.166005
H207  H     H_    0.421083 0.755398 0.252978 0.166504
H208  H     H_    0.393054 0.730492 0.300776 0.186318
O61   O     O_3   0.092548 0.406221 0.148442 -0.606821
C217  C     C_3   0.065496 0.334238 0.151053 -0.323605
H209  H     H_    0.045424 0.319090 0.180400 0.150022
H210  H     H_    0.110530 0.296227 0.144128 0.195525
H211  H     H_    0.020895 0.325754 0.129866 0.188438
O62   O     O_3   0.595699 0.090983 0.148454 -0.606621
C218  C     C_3   0.667537 0.063159 0.151115 -0.324416
H212  H     H_    0.682299 0.042766 0.180436 0.149718
H213  H     H_    0.706446 0.107619 0.144381 0.196056
H214  H     H_    0.675409 0.018802 0.129851 0.188598
O63   O     O_3   0.907451 0.593778 0.148442 -0.606821
C219  C     C_3   0.934503 0.665761 0.151053 -0.323607
H215  H     H_    0.954575 0.680909 0.180401 0.150022
H216  H     H_    0.889468 0.703772 0.144129 0.195527
H217  H     H_    0.979103 0.674246 0.129866 0.188437
O64   O     O_3   0.404299 0.909018 0.148454 -0.606621
C220  C     C_3   0.332462 0.936843 0.151116 -0.324416
H218  H     H_    0.317700 0.957233 0.180437 0.149720
H219  H     H_    0.293553 0.892384 0.144381 0.196057
H220  H     H_    0.324592 0.981202 0.129852 0.188597
O65   O     O_3   0.589039 0.902796 0.648503 -0.605758
C221  C     C_3   0.558948 0.832026 0.651179 -0.320355
H221  H     H_    0.542463 0.816544 0.681077 0.151036
H222  H     H_    0.600910 0.792269 0.642010 0.194556
H223  H     H_    0.511115 0.826586 0.631754 0.183142
O66   O     O_3   0.127993 0.535935 0.649751 -0.597302
C222  C     C_3   0.174604 0.474773 0.651586 -0.322325
H224  H     H_    0.184413 0.456093 0.681781 0.159684
H225  H     H_    0.228592 0.490123 0.639534 0.174268
H226  H     H_    0.152289 0.429036 0.634122 0.180224
O67   O     O_3   0.410972 0.097212 0.648504 -0.605754
C223  C     C_3   0.441076 0.167976 0.651181 -0.320332
H227  H     H_    0.457533 0.183463 0.681082 0.151045
H228  H     H_    0.399133 0.207739 0.641997 0.194559
H229  H     H_    0.488931 0.173400 0.631769 0.183125
O68   O     O_3   0.872005 0.464081 0.649754 -0.597313
C224  C     C_3   0.825397 0.525244 0.651589 -0.322336
H230  H     H_    0.815592 0.543926 0.681784 0.159692
H231  H     H_    0.771407 0.509896 0.639539 0.174275
H232  H     H_    0.847713 0.570979 0.634124 0.180219

loop_
_geom_bond_atom_site_label_1
_geom_bond_atom_site_label_2
_ccdc_geom_bond_type
C78   O34   A    
C79   C139  S    
C222  H224  S    
N17   H89   S    
C55   C59   A    
N26   C194  S    
C180  H71   S    
C196  H134  S    
O21   Zn9   S    
N6    H45   S    
C34   C42   A    
N34   H157  S    
C112  H16   S    
O3    Zn13  S    
N13   H73   S    
C76   O32   A    
C172  H40   S    
C40   C46   A    
C70   O26   A    
C73   O47   A    
O13   Zn1   S    
C217  H209  S    
C210  H189  S    
C21   C33   A    
C119  C130  A    
C108  C109  A    
C95   N31   S    
C223  H228  S    
C193  H124  S    
C79   O35   A    
C117  C132  A    
C188  H104  S    
C118  C131  A    
C8    C168  A    
C88   C104  A    
C209  H185  S    
C219  H217  S    
C218  H212  S    
C84   C117  A    
C200  H151  S    
C173  H43   S    
C51   C57   A    
C144  C160  A    
C24   O56   S    
C129  C145  A    
O46   Zn8   S    
C138  C154  A    
N20   C188  S    
C194  H127  S    
O2    Zn4   S    
C155  C158  A    
C207  H179  S    
C92   N28   S    
C64   O18   A    
C142  C158  A    
C22   C34   A    
C62   O16   A    
C184  H87   S    
C153  N9    S    
C25   C29   A    
C209  H186  S    
C27   C31   A    
C1    C6    S    
C84   C100  A    
C91   C107  A    
C28   C32   A    
C195  H132  S    
O33   Zn15  S    
C121  C128  A    
N8    C176  S    
C3    C8    S    
C212  H195  S    
C123  C126  A    
C116  C133  A    
O54   C210  S    
C220  H218  S    
C206  H176  S    
C216  H208  S    
C5    C161  A    
C178  H64   S    
N32   C200  S    
C65   O21   A    
C212  H196  S    
C113  C120  A    
C154  N10   S    
C83   N19   S    
C15   C27   A    
N8    H53   S    
C16   C20   A    
C115  C118  A    
C211  H191  S    
C171  H36   S    
C221  H221  S    
C137  C153  A    
C14   C26   A    
C75   C143  S    
C140  C156  A    
C87   C103  A    
C95   C122  A    
C141  C157  A    
C203  H163  S    
C105  C112  A    
C170  H31   S    
C190  H110  S    
C107  C110  A    
O47   Zn5   S    
C36   C44   A    
O61   C217  S    
C37   C45   A    
C189  H106  S    
N28   H133  S    
C198  H144  S    
O6    Zn12  S    
N24   C192  S    
C107  H11   S    
C85   C116  A    
O3    Zn15  S    
C105  H9    S    
O56   C212  S    
O15   Zn3   S    
N20   H101  S    
C57   C61   S    
C115  C134  A    
C50   O62   S    
N23   H113  S    
C88   N24   S    
C59   C63   S    
C148  N4    S    
C73   O29   A    
C60   C64   S    
O68   C224  S    
C89   N25   S    
C204  H166  S    
N5    C173  S    
C186  H94   S    
O31   Zn15  S    
C9    C21   A    
C10   C18   A    
C11   C23   A    
O40   Zn2   S    
C148  C149  A    
N4    C172  S    
C74   O48   A    
C146  N2    S    
C199  H147  S    
C181  H74   S    
C215  H203  S    
C67   O37   A    
N40   H181  S    
N37   C205  S    
N11   H65   S    
O2    Zn2   S    
C222  H226  S    
O4    Zn6   S    
C185  H90   S    
C201  H155  S    
C64   O20   A    
C208  H183  S    
N25   H121  S    
C43   C47   A    
C62   O14   A    
C42   C54   A    
O11   Zn13  S    
O8    Zn10  S    
N30   C198  S    
C53   O65   S    
C214  H202  S    
C39   C51   A    
C54   O66   S    
C100  H4    S    
O44   Zn4   S    
C101  H5    S    
C195  H130  S    
O49   Zn7   S    
C92   C125  A    
C192  H118  S    
C104  H8    S    
N29   H137  S    
N34   C202  S    
C30   C38   A    
C206  H174  S    
C96   C121  A    
C5    C163  A    
C27   O59   S    
N6    C174  S    
N36   C204  S    
N1    H25   S    
C130  C146  A    
N24   H117  S    
C211  H193  S    
C49   C57   A    
O26   Zn10  S    
C9    C163  A    
C88   C113  A    
C92   C108  A    
C197  H138  S    
C176  H55   S    
C190  H112  S    
C25   O57   S    
C131  C147  A    
C35   C43   A    
C114  C119  A    
C161  N33   S    
C162  N34   S    
C39   C45   A    
C79   O49   A    
C179  H66   S    
O53   C209  S    
N7    C175  S    
C121  C144  A    
O39   Zn1   S    
C122  C143  A    
C4    C7    S    
C111  H15   S    
N27   C195  S    
C68   O38   A    
N3    H33   S    
N13   C181  S    
C106  C111  A    
C182  H79   S    
C125  C140  A    
C163  N35   S    
C72   O28   A    
C126  C139  A    
C82   C98   A    
C120  C129  A    
C34   H22   S    
C218  H214  S    
N40   C208  S    
C186  H96   S    
C158  N14   S    
N12   C180  S    
C91   N27   S    
C211  H192  S    
C86   C115  A    
C179  H67   S    
O16   Zn4   S    
C174  H46   S    
N38   H173  S    
C215  H205  S    
C139  C155  A    
C90   C127  A    
C187  H100  S    
C49   O61   S    
O4    Zn8   S    
C70   C132  S    
C41   C47   A    
C165  N37   S    
O65   C221  S    
C42   C48   A    
N39   C207  S    
C41   C53   A    
C147  N3    S    
C213  H198  S    
C43   C55   A    
C26   C30   A    
C177  H59   S    
C145  N1    S    
C124  C141  A    
C2    C5    S    
N15   C183  S    
C31   H19   S    
O55   C211  S    
C86   C102  A    
C192  H120  S    
N21   C189  S    
C202  H160  S    
C109  H13   S    
C7    C167  A    
O66   C222  S    
C35   H23   S    
O27   Zn9   S    
C217  H211  S    
C26   O58   S    
C1    O5    A    
O48   Zn6   S    
C17   C47   A    
C63   O19   A    
N22   C190  S    
C18   C48   A    
N2    H29   S    
O36   Zn16  S    
C155  N11   S    
C216  H207  S    
C12   C24   A    
C153  C160  A    
C69   O43   A    
C189  H108  S    
C154  C159  A    
C183  H84   S    
C217  H210  S    
C87   N23   S    
C80   C138  S    
O28   Zn12  S    
C100  C101  A    
N3    C171  S    
O2    Zn12  S    
C185  H92   S    
C193  H123  S    
C164  N36   S    
C175  H52   S    
C188  H103  S    
C145  C152  A    
C213  H197  S    
C71   C131  S    
C146  C151  A    
O37   Zn3   S    
C44   C48   A    
N10   H61   S    
C23   O55   S    
C200  H150  S    
C89   C105  A    
C31   C39   A    
C15   C165  A    
C21   O53   S    
C207  H178  S    
C204  H168  S    
C106  H10   S    
C20   C46   A    
C93   C109  A    
N19   C187  S    
C58   C62   S    
C77   O33   A    
C194  H126  S    
O51   Zn5   S    
O22   Zn10  S    
C3    O11   A    
C205  H170  S    
O34   Zn14  S    
N11   C179  S    
C184  H86   S    
C205  H172  S    
O38   Zn4   S    
C169  H26   S    
N28   C196  S    
C73   C141  S    
C82   N18   S    
C10   C22   A    
C15   C19   A    
C69   O25   A    
O14   Zn2   S    
C77   C137  S    
O23   Zn11  S    
C174  H48   S    
C212  H194  S    
C191  H116  S    
N31   C199  S    
C98   C103  A    
C11   C161  A    
C160  N16   S    
C71   O27   A    
C76   O46   A    
O62   C218  S    
N7    H49   S    
N33   C201  S    
C136  C152  A    
O12   Zn14  S    
N16   H85   S    
C224  H231  S    
C151  N7    S    
C221  H222  S    
N18   H93   S    
C56   O68   S    
C127  C138  A    
O20   Zn8   S    
C94   C123  A    
C198  H143  S    
C7    C165  A    
O67   C223  S    
O24   Zn12  S    
C83   C99   A    
C170  H30   S    
C196  H135  S    
C1    O7    A    
C82   C119  A    
C63   O17   A    
C84   N20   S    
C93   N29   S    
C178  H63   S    
C220  H219  S    
C221  H223  S    
C13   C19   A    
N32   H149  S    
C50   C58   A    
C14   C20   A    
C90   C106  A    
C197  H139  S    
C183  H82   S    
C65   O39   A    
C210  H190  S    
C90   N26   S    
N9    H57   S    
C94   C110  A    
C78   O52   A    
O2    Zn10  S    
C223  H227  S    
C159  N15   S    
O50   Zn6   S    
C66   O22   A    
C67   C135  S    
C175  H50   S    
O9    Zn15  S    
N37   H169  S    
O10   Zn16  S    
C37   C49   A    
C44   C56   A    
C4    O10   A    
N14   H77   S    
C200  H152  S    
C147  C150  A    
C19   C45   A    
C173  H44   S    
C70   O44   A    
C80   O36   A    
O4    Zn14  S    
C61   O15   A    
C96   N32   S    
N38   C206  S    
C6    C164  A    
C194  H128  S    
C23   C35   A    
C222  H225  S    
C3    O9    A    
C207  H180  S    
C75   O45   A    
C172  H39   S    
O1    Zn11  S    
C184  H88   S    
O64   C220  S    
C181  H75   S    
C201  H154  S    
C214  H201  S    
C74   C144  S    
C204  H167  S    
C11   C17   A    
C218  H213  S    
C166  N38   S    
C78   C140  S    
C187  H98   S    
C181  H76   S    
C191  H114  S    
N16   C184  S    
C143  C159  A    
C74   O30   A    
C51   O63   S    
C33   C41   A    
C208  H184  S    
C68   C134  S    
C220  H220  S    
N4    H37   S    
N12   H69   S    
O42   Zn2   S    
O41   Zn3   S    
N2    C170  S    
C135  C151  A    
C123  C142  A    
C80   O50   A    
C168  N40   S    
C68   O24   A    
C195  H131  S    
C97   C104  A    
C4    O12   A    
C56   C60   A    
C203  H164  S    
C110  H14   S    
C206  H175  S    
C176  H54   S    
C170  H32   S    
C29   C37   A    
N26   H125  S    
C190  H111  S    
O1    Zn1   S    
C95   C111  A    
O1    Zn9   S    
C209  H187  S    
C16   C28   A    
C169  H28   S    
C177  H58   S    
C91   C126  A    
C55   O67   S    
C198  H142  S    
C180  H70   S    
C67   O23   A    
C93   C124  A    
N36   H165  S    
N27   H129  S    
C53   C59   A    
C157  N13   S    
C210  H188  S    
C72   O42   A    
C54   C60   A    
C182  H78   S    
C96   C112  A    
C81   C120  A    
N5    H41   S    
C223  H229  S    
C2    O8    A    
C30   H18   S    
C83   C118  A    
C156  C157  A    
C171  H35   S    
C186  H95   S    
C13   C167  A    
N25   C193  S    
C99   H3    S    
C214  H200  S    
C134  C150  A    
C66   O40   A    
C122  C127  A    
C97   H1    S    
C116  C117  A    
C108  H12   S    
O59   C215  S    
C167  N39   S    
C208  H182  S    
O25   Zn11  S    
O4    Zn16  S    
C87   C114  A    
N35   C203  S    
C85   N21   S    
C173  H42   S    
C29   H17   S    
C199  H148  S    
C113  C136  A    
O3    Zn7   S    
C99   C102  A    
C201  H156  S    
C114  C135  A    
O17   Zn5   S    
O57   C213  S    
O32   Zn16  S    
C52   O64   S    
C71   O41   A    
C75   O31   A    
C150  N6    S    
N18   C186  S    
C13   C25   A    
N33   H153  S    
O29   Zn13  S    
C103  H7    S    
C192  H119  S    
C197  H140  S    
C94   N30   S    
C202  H159  S    
C36   H24   S    
C52   C58   A    
N10   C178  S    
C38   C46   A    
C32   H20   S    
N29   C197  S    
C132  C148  A    
C6    C162  A    
C133  C149  A    
O60   C216  S    
C77   O51   A    
C16   C166  A    
O63   C219  S    
N1    C169  S    
C187  H99   S    
C172  H38   S    
C40   C52   A    
C12   C162  A    
N23   C191  S    
C98   H2    S    
N17   C185  S    
C128  C137  A    
C189  H107  S    
C202  H158  S    
C183  H83   S    
C203  H162  S    
C193  H122  S    
C176  H56   S    
C216  H206  S    
N35   H161  S    
O1    Zn3   S    
C185  H91   S    
C81   N17   S    
C33   H21   S    
C175  H51   S    
C188  H102  S    
O30   Zn14  S    
C8    C166  A    
C224  H232  S    
C89   C128  A    
C9    C17   A    
C219  H215  S    
N14   C182  S    
C171  H34   S    
C22   O54   S    
C180  H72   S    
C66   C136  S    
C12   C18   A    
C85   C101  A    
N19   H97   S    
N39   H177  S    
C182  H80   S    
C10   C164  A    
O52   Zn8   S    
C2    O6    A    
C149  N5    S    
C215  H204  S    
C213  H199  S    
C205  H171  S    
C72   C130  S    
C38   C50   A    
C102  H6    S    
C24   C36   A    
C179  H68   S    
C199  H146  S    
C174  H47   S    
C169  H27   S    
C191  H115  S    
N31   H145  S    
N21   H105  S    
N9    C177  S    
C81   C97   A    
C69   C129  S    
O3    Zn5   S    
C219  H216  S    
C196  H136  S    
O18   Zn6   S    
C28   O60   S    
C32   C40   A    
C178  H62   S    
C86   N22   S    
C156  N12   S    
O35   Zn13  S    
N30   H141  S    
O5    Zn11  S    
C224  H230  S    
C177  H60   S    
C61   O13   A    
O58   C214  S    
O45   Zn7   S    
O7    Zn9   S    
O19   Zn7   S    
N15   H81   S    
C152  N8    S    
C14   C168  A    
O43   Zn1   S    
C65   C133  S    
N22   H109  S    
C124  C125  A    
C76   C142  S    
