data_mof_unit_pretest_815.cif
_audit_creation_date              2012-12-11T17:14:02-0500
_audit_creation_method            fapswitch 2.2
_symmetry_space_group_name_H-M    P1
_symmetry_Int_Tables_number       1
_space_group_crystal_system       triclinic
_cell_length_a                    18.197276
_cell_length_b                    7.110021
_cell_length_c                    13.006629
_cell_angle_alpha                 90.004635
_cell_angle_beta                  72.959055
_cell_angle_gamma                 89.999377
_cell_volume                      1608.95287823

loop_
_atom_site_label
_atom_site_type_symbol
_atom_type_description
_atom_site_fract_x
_atom_site_fract_y
_atom_site_fract_z
_atom_type_partial_charge
O1    O     O_R   0.453880 0.506200 0.150010 -0.538356
O2    O     O_R   0.546120 0.006200 0.849990 -0.538350
O3    O     O_R   0.604080 0.177770 0.007280 -0.542635
O4    O     O_R   0.395920 0.677770 0.992720 -0.542701
C1    C     C_R   0.635859 0.344501 0.002118 0.734462
C2    C     C_R   0.364140 0.844500 0.997886 0.734429
O5    O     O_R   0.458010 0.176640 0.159130 -0.541593
O6    O     O_R   0.541990 0.676640 0.840870 -0.541601
O7    O     O_R   0.399010 0.004010 0.002930 -0.535698
O8    O     O_R   0.600990 0.504010 0.997070 -0.535755
C3    C     C_R   0.443627 0.345247 0.201139 0.687235
C4    C     C_R   0.556364 0.845219 0.798862 0.687239
O9    O     O_3   0.480810 0.338440 0.948570 -0.375399
O10   O     O_3   0.519190 0.838440 0.051430 -0.375428
V1    V     V_3+5 0.503560 0.064490 0.009540 1.395870
V2    V     V_3+5 0.496440 0.564490 0.990460 1.395754
C5    C     C_R   0.572049 0.871574 0.506695 -0.156574
C6    C     C_R   0.427911 0.374600 0.493250 -0.156567
H1    H     H_    0.478709 0.867010 0.652369 0.104409
H2    H     H_    0.521239 0.370634 0.347546 0.104433
H3    H     H_    0.639592 0.878530 0.304927 0.116005
H4    H     H_    0.360362 0.381632 0.695056 0.115987
H5    H     H_    0.533471 0.878944 0.457162 0.122565
H6    H     H_    0.466473 0.383444 0.542750 0.122582
C7    C     C_R   0.588880 0.854097 0.682778 -0.024945
C8    C     C_R   0.411106 0.354319 0.317224 -0.025008
C9    C     C_R   0.944373 0.855426 0.380888 -0.152820
C10   C     C_R   0.055631 0.354795 0.619095 -0.152870
C11   C     C_R   0.914215 0.851484 0.491156 -0.132206
C12   C     C_R   0.085804 0.350936 0.508831 -0.132170
C13   C     C_R   0.835444 0.853145 0.537859 -0.150542
C14   C     C_R   0.164576 0.353003 0.462139 -0.150603
C15   C     C_R   0.783502 0.857590 0.474986 0.066957
C16   C     C_R   0.216500 0.357575 0.525018 0.066946
C17   C     C_R   0.813843 0.861635 0.359412 0.016762
C18   C     C_R   0.186149 0.361858 0.640582 0.016793
C19   C     C_R   0.702355 0.858935 0.524880 0.070547
C20   C     C_R   0.297641 0.359149 0.475131 0.070567
C21   C     C_R   0.652250 0.868074 0.460124 0.102356
C22   C     C_R   0.347726 0.369884 0.539856 0.102344
C23   C     C_R   0.681272 0.872264 0.349173 -0.195652
C24   C     C_R   0.318700 0.374352 0.650810 -0.195659
C25   C     C_R   0.760475 0.866723 0.295901 0.021842
C26   C     C_R   0.239510 0.367627 0.704086 0.021858
C27   C     C_R   0.668567 0.851097 0.637767 -0.205926
C28   C     C_R   0.331434 0.350048 0.362278 -0.206030
C29   C     C_R   0.540588 0.864719 0.617518 -0.179138
C30   C     C_R   0.459374 0.367173 0.382430 -0.179028
C31   C     C_R   0.896368 0.861016 0.314495 -0.068744
C32   C     C_R   0.103623 0.360878 0.685493 -0.068736
H7    H     H_    0.701691 0.841233 0.693835 0.090797
H8    H     H_    0.298313 0.338158 0.306298 0.090865
H9    H     H_    0.006376 0.855023 0.346639 0.103780
H10   H     H_    0.993627 0.354103 0.653336 0.103774
H11   H     H_    0.817606 0.851964 0.624270 0.106311
H12   H     H_    0.182446 0.352368 0.375733 0.106337
H13   H     H_    0.952395 0.848012 0.541262 0.126083
H14   H     H_    0.047634 0.347331 0.458721 0.126095
C33   C     C_1   0.216456 0.858901 0.999519 -0.212327
C34   C     C_1   0.783542 0.358930 0.000488 -0.212366
C35   C     C_1   0.283777 0.852692 0.998420 -0.191148
C36   C     C_1   0.716221 0.352707 0.001588 -0.191054
O11   O     O_R   0.899030 0.205490 0.002790 -0.541643
O12   O     O_R   0.100970 0.705490 0.997210 -0.541737
O13   O     O_R   0.042000 0.536370 0.840840 -0.541437
O14   O     O_R   0.958000 0.036370 0.159160 -0.541419
C37   C     C_R   0.062891 0.368952 0.800253 0.671873
C38   C     C_R   0.937091 0.868979 0.199736 0.671919
O15   O     O_R   0.895930 0.535070 0.992690 -0.545268
O16   O     O_R   0.104070 0.035070 0.007310 -0.545181
O17   O     O_R   0.953870 0.707520 0.150040 -0.540507
O18   O     O_R   0.046130 0.207520 0.849960 -0.540480
C39   C     C_R   0.864117 0.366843 0.999048 0.728312
C40   C     C_R   0.135883 0.866836 0.000955 0.728343
O19   O     O_3   0.019200 0.374340 0.051340 -0.372596
O20   O     O_3   0.980800 0.874340 0.948660 -0.372576
V3    V     V_3+5 0.996440 0.648350 0.990470 1.390440
V4    V     V_3+5 0.003560 0.148350 0.009530 1.390564
C41   C     C_3   0.785772 0.864416 0.172619 -0.358166
C42   C     C_3   0.722163 0.867808 0.115748 -0.318843
C43   C     C_3   0.755013 0.864223 0.993327 -0.693147
H15   H     H_    0.795237 0.982375 0.964328 0.229801
H16   H     H_    0.786235 0.731858 0.965939 0.229235
H17   H     H_    0.707483 0.874969 0.956153 0.214128
H18   H     H_    0.684204 0.743028 0.140182 0.195431
H19   H     H_    0.687511 0.998292 0.138050 0.198080
H20   H     H_    0.821771 0.989888 0.144411 0.194351
H21   H     H_    0.818982 0.734075 0.146318 0.197576
C44   C     C_3   0.214213 0.364916 0.827360 -0.358122
C45   C     C_3   0.277815 0.368679 0.884237 -0.318760
C46   C     C_3   0.244945 0.364490 0.006651 -0.693073
H22   H     H_    0.204365 0.481956 0.035798 0.229879
H23   H     H_    0.214102 0.231562 0.033826 0.229136
H24   H     H_    0.292423 0.376039 0.043881 0.214148
H25   H     H_    0.316001 0.244315 0.859583 0.195500
H26   H     H_    0.312238 0.499559 0.862171 0.197978
H27   H     H_    0.178064 0.490116 0.855693 0.194494
H28   H     H_    0.181149 0.234301 0.853533 0.197410

loop_
_geom_bond_atom_site_label_1
_geom_bond_atom_site_label_2
_ccdc_geom_bond_type
O14   C38   A    
C31   C38   S    
C9    C11   A    
O12   V3    S    
O15   V3    S    
O1    C3    A    
O2    C4    A    
C2    O7    A    
C41   H20   S    
C43   H15   S    
C18   C32   A    
C45   H25   S    
C21   C23   A    
O5    C3    A    
C5    H5    S    
C6    H6    S    
C2    C35   S    
O20   V4    S    
H1    C29   S    
O16   V4    S    
C27   H7    S    
C25   C41   S    
C28   H8    S    
C34   C39   S    
C34   C36   T    
C37   O18   A    
C5    C21   A    
C6    C22   A    
C42   H19   S    
C10   C32   A    
O13   C37   A    
C17   C31   A    
O18   V4    S    
C13   C15   A    
O15   C39   A    
C12   C14   A    
C17   C25   A    
C32   C37   S    
C7    C29   A    
C8    C30   A    
C22   C24   A    
O6    V2    S    
C23   C25   A    
C24   C26   A    
C41   H21   S    
C43   H16   S    
O14   V4    S    
C33   C35   T    
O13   V3    S    
O20   V3    S    
O4    C2    A    
C46   H22   S    
C10   H10   S    
O11   C39   A    
C3    C8    S    
C15   C19   A    
C44   H27   S    
C14   C16   A    
O4    V2    S    
O16   C40   A    
C42   H18   S    
C46   H23   S    
O6    C4    A    
O1    V2    S    
O2    V1    S    
O19   V3    S    
C33   C40   S    
H2    C30   S    
H3    C23   S    
C11   H13   S    
C18   C26   A    
C19   C27   A    
C7    C27   A    
O17   V3    S    
C43   H17   S    
O3    V1    S    
C16   C20   A    
C5    C29   A    
C42   C43   S    
O3    C1    A    
C6    C30   A    
C9    H9    S    
C45   H26   S    
C44   H28   S    
C4    C7    S    
C10   C12   A    
O7    V1    S    
C1    O8    A    
C11   C13   A    
O8    V2    S    
C46   H24   S    
C20   C22   A    
C45   C46   S    
H4    C24   S    
C38   O17   A    
C12   H14   S    
O5    V1    S    
C15   C17   A    
C1    C36   S    
C16   C18   A    
O19   V4    S    
C20   C28   A    
C8    C28   A    
C41   C42   S    
C19   C21   A    
O9    V2    S    
O12   C40   A    
O10   V1    S    
C13   H11   S    
C44   C45   S    
C14   H12   S    
C26   C44   S    
C9    C31   A    
O11   V4    S    
