data_mof_unit_pretest_1732.cif
_audit_creation_date              2013-03-05T16:27:52-0500
_audit_creation_method            fapswitch 2.2
_symmetry_space_group_name_H-M    P1
_symmetry_Int_Tables_number       1
_space_group_crystal_system       triclinic
_cell_length_a                    38.875044
_cell_length_b                    32.222506
_cell_length_c                    21.664442
_cell_angle_alpha                 90.015351
_cell_angle_beta                  55.943622
_cell_angle_gamma                 90.013822
_cell_volume                      22483.4711137

loop_
_atom_site_label
_atom_site_type_symbol
_atom_site_description
_atom_site_fract_x
_atom_site_fract_y
_atom_site_fract_z
_atom_type_partial_charge
O1    O     O_R   0.940150 0.534620 0.559830 -0.570999
O2    O     O_R   0.059850 0.534620 0.440170 -0.570834
O3    O     O_R   0.440150 0.034620 0.559830 -0.571901
O4    O     O_R   0.559850 0.034620 0.440170 -0.570246
O5    O     O_R   0.940110 0.465340 0.559870 -0.562845
O6    O     O_R   0.059890 0.465340 0.440130 -0.563516
O7    O     O_R   0.440110 0.965340 0.559870 -0.562958
O8    O     O_R   0.559890 0.965340 0.440130 -0.563438
C1    C     C_R   0.920407 0.499989 0.579482 0.847176
C2    C     C_R   0.079593 0.499993 0.420518 0.847140
C3    C     C_R   0.420407 0.999989 0.579480 0.847006
C4    C     C_R   0.579593 0.999993 0.420515 0.847245
O9    O     O_R   0.999990 0.534620 0.408860 -0.591036
O10   O     O_R   0.000010 0.534620 0.591140 -0.591060
O11   O     O_R   0.499990 0.034620 0.408860 -0.590751
O12   O     O_R   0.500010 0.034620 0.591140 -0.591990
O13   O     O_R   0.999950 0.465340 0.408890 -0.563507
O14   O     O_R   0.000050 0.465340 0.591110 -0.563339
O15   O     O_R   0.499950 0.965340 0.408890 -0.563571
O16   O     O_R   0.500050 0.965340 0.591110 -0.562542
C5    C     C_R   0.997240 0.499846 0.382788 0.908220
C6    C     C_R   0.002763 0.499855 0.617209 0.908392
C7    C     C_R   0.497229 0.999849 0.382800 0.908618
C8    C     C_R   0.502701 0.999855 0.617285 0.907743
Cu1   Cu    Cu3+1 0.000000 0.540990 0.500000 1.050492
Cu2   Cu    Cu3+1 0.500000 0.040990 0.500000 1.049425
Cu3   Cu    Cu3+1 0.000000 0.458960 0.500000 1.095981
Cu4   Cu    Cu3+1 0.500000 0.958960 0.500000 1.096125
C9    C     C_1   0.999994 0.375902 0.000008 -0.077158
C10   C     C_1   0.499989 0.875897 0.000040 -0.076194
C11   C     C_1   0.499996 0.623880 0.000031 -0.072048
C12   C     C_1   0.999999 0.123884 0.000023 -0.072076
C13   C     C_R   0.999994 0.293625 0.000019 -0.190328
C14   C     C_R   0.499980 0.793617 0.000054 -0.190219
C15   C     C_R   0.015716 0.271877 0.932844 0.343647
C16   C     C_R   0.984275 0.271897 0.067197 0.344440
C17   C     C_R   0.516830 0.771869 0.932553 0.343244
C18   C     C_R   0.483129 0.771886 0.067559 0.343492
C19   C     C_3   0.962928 0.531989 0.324432 0.070035
C20   C     C_3   0.037072 0.532014 0.675592 0.070139
C21   C     C_3   0.462994 0.032081 0.324361 0.070293
C22   C     C_3   0.537382 0.031667 0.675265 0.071784
H1    H     H_    0.973771 0.561884 0.332969 0.175973
H2    H     H_    0.026228 0.561906 0.667076 0.175920
H3    H     H_    0.473918 0.061954 0.332793 0.175822
H4    H     H_    0.526798 0.061686 0.666591 0.174910
C23   C     C_3   0.963300 0.535607 0.250858 0.579394
C24   C     C_3   0.036697 0.535631 0.749173 0.579611
C25   C     C_3   0.463362 0.035688 0.250789 0.579013
C26   C     C_3   0.537155 0.035234 0.748706 0.571254
H5    H     H_    0.045816 0.546424 0.265846 0.227786
H6    H     H_    0.954185 0.546426 0.734188 0.227811
H7    H     H_    0.545917 0.046311 0.265763 0.227997
H8    H     H_    0.454654 0.047031 0.733704 0.225657
C27   C     C_3   0.039130 0.515761 0.250872 -0.606878
C28   C     C_3   0.960871 0.515765 0.749137 -0.606962
C29   C     C_3   0.539155 0.015669 0.250852 -0.606572
C30   C     C_3   0.461011 0.016320 0.749044 -0.610768
C31   C     C_3   0.991144 0.455290 0.291549 0.133470
C32   C     C_3   0.008863 0.455308 0.708410 0.133913
C33   C     C_3   0.491031 0.955312 0.291668 0.133847
C34   C     C_3   0.508247 0.955278 0.709101 0.133913
C35   C     C_3   0.995865 0.499935 0.315434 -0.265215
C36   C     C_3   0.004138 0.499953 0.684562 -0.265402
C37   C     C_3   0.495853 0.999946 0.315447 -0.265417
C38   C     C_3   0.504080 0.999969 0.684642 -0.264491
H9    H     H_    0.020047 0.438236 0.275335 0.101286
H10   H     H_    0.979961 0.438245 0.724607 0.101727
H11   H     H_    0.519897 0.938192 0.275482 0.101618
H12   H     H_    0.479121 0.938592 0.725546 0.101138
C39   C     C_3   0.999187 0.505267 0.190270 -0.292864
C40   C     C_3   0.000813 0.505280 0.809734 -0.292979
C41   C     C_3   0.499185 0.005271 0.190274 -0.292757
C42   C     C_3   0.500857 0.005378 0.809715 -0.292865
C43   C     C_3   0.043015 0.519560 0.175101 0.824030
C44   C     C_3   0.956984 0.519560 0.824913 0.823644
C45   C     C_3   0.543042 0.019471 0.175081 0.822491
C46   C     C_3   0.457229 0.020253 0.824711 0.830200
C47   C     C_3   0.991548 0.458842 0.219542 0.014380
C48   C     C_3   0.008456 0.458858 0.780421 0.014717
C49   C     C_3   0.491434 0.958864 0.219663 0.015151
C50   C     C_3   0.507896 0.958860 0.781044 0.016206
H13   H     H_    0.019492 0.441131 0.176245 0.139683
H14   H     H_    0.980512 0.441139 0.823700 0.139968
H15   H     H_    0.519332 0.941086 0.176401 0.139819
H16   H     H_    0.479735 0.941501 0.824575 0.140004
H17   H     H_    0.063080 0.494597 0.246128 0.170106
H18   H     H_    0.936923 0.494595 0.753860 0.170255
H19   H     H_    0.563054 0.994443 0.246148 0.170202
H20   H     H_    0.436797 0.995407 0.754141 0.170568
H21   H     H_    0.789755 0.505565 0.808770 0.195062
H22   H     H_    0.210246 0.505565 0.191232 0.194888
H23   H     H_    0.289756 0.005489 0.808776 0.194607
H24   H     H_    0.710247 0.006026 0.191290 0.195092
C51   C     C_R   0.728552 0.502634 0.829576 0.361513
C52   C     C_R   0.271448 0.502636 0.170425 0.361320
C53   C     C_R   0.228553 0.002588 0.829579 0.361580
C54   C     C_R   0.771449 0.002910 0.170453 0.361298
C55   C     C_R   0.706245 0.499157 0.795839 -0.047850
C56   C     C_R   0.293755 0.499166 0.204161 -0.047840
C57   C     C_R   0.206245 0.999154 0.795837 -0.047869
C58   C     C_R   0.793755 0.999179 0.204153 -0.047614
C59   C     C_R   0.727839 0.496196 0.718098 -0.302248
C60   C     C_R   0.272160 0.496215 0.281901 -0.305328
C61   C     C_R   0.227839 0.996236 0.718091 -0.304822
C62   C     C_R   0.772159 0.995966 0.281861 -0.303819
H25   H     H_    0.710882 0.493216 0.692142 0.182231
H26   H     H_    0.289116 0.493240 0.307857 0.181338
H27   H     H_    0.210881 0.993290 0.692130 0.181478
H28   H     H_    0.789116 0.992789 0.307785 0.181630
C63   C     C_R   0.771376 0.497203 0.673007 0.517300
C64   C     C_R   0.228623 0.497226 0.326993 0.516738
C65   C     C_R   0.271375 0.997246 0.673001 0.517319
C66   C     C_R   0.728622 0.996969 0.326964 0.516043
C67   C     C_R   0.793584 0.500155 0.706285 -0.024837
C68   C     C_R   0.206416 0.500171 0.293715 -0.024610
C69   C     C_R   0.293584 0.000155 0.706283 -0.024671
C70   C     C_R   0.706416 0.000172 0.293716 -0.024382
C71   C     C_R   0.772224 0.503275 0.783817 -0.312030
C72   C     C_R   0.227777 0.503281 0.216184 -0.313715
C73   C     C_R   0.272224 0.003232 0.783820 -0.314135
C74   C     C_R   0.727778 0.003545 0.216218 -0.312140
C75   C     C_1   0.661385 0.499559 0.839223 0.080492
C76   C     C_1   0.338615 0.499563 0.160777 0.078459
C77   C     C_1   0.161385 0.999556 0.839222 0.078662
C78   C     C_1   0.838615 0.999569 0.160774 0.079402
C79   C     C_1   0.838384 0.500062 0.661284 0.056532
C80   C     C_1   0.161616 0.500078 0.338716 0.055450
C81   C     C_1   0.338384 0.000063 0.661281 0.055189
C82   C     C_1   0.661616 0.000078 0.338715 0.056385
C83   C     C_1   0.875837 0.500017 0.623864 -0.085961
C84   C     C_1   0.124163 0.500029 0.376136 -0.086678
C85   C     C_1   0.375837 0.000017 0.623861 -0.087220
C86   C     C_1   0.624163 0.000029 0.376133 -0.085778
C87   C     C_1   0.623901 0.499804 0.875978 -0.096593
C88   C     C_1   0.376099 0.499806 0.124021 -0.099077
C89   C     C_1   0.123901 0.999803 0.875978 -0.098575
C90   C     C_1   0.876099 0.999808 0.124021 -0.097898
C91   C     C_1   0.499994 0.661339 0.000047 0.192612
C92   C     C_1   0.999998 0.161344 0.000027 0.192353
O17   O     O_R   0.965330 0.559800 0.034660 -0.603180
O18   O     O_R   0.034670 0.559800 0.965340 -0.603240
O19   O     O_R   0.465330 0.059800 0.034660 -0.608358
O20   O     O_R   0.534670 0.059800 0.965340 -0.595814
C93   C     C_R   0.000002 0.579526 0.000004 0.846148
C94   C     C_R   0.500006 0.079521 0.000056 0.843027
O21   O     O_R   0.965350 0.499950 0.125800 -0.500596
O22   O     O_R   0.034650 0.499950 0.874200 -0.500712
O23   O     O_R   0.465350 0.999950 0.125800 -0.500539
O24   O     O_R   0.534650 0.999950 0.874200 -0.501079
O25   O     O_R   0.034620 0.500000 0.056540 -0.598304
O26   O     O_R   0.965380 0.500000 0.943460 -0.598124
O27   O     O_R   0.534620 0.000000 0.056540 -0.598598
O28   O     O_R   0.465380 1.000000 0.943460 -0.596022
C95   C     C_R   0.999942 0.503804 0.120171 0.896567
C96   C     C_R   0.000058 0.503812 0.879832 0.896673
C97   C     C_R   0.499943 0.003800 0.120172 0.896261
C98   C     C_R   0.500069 0.003909 0.879842 0.895822
Cu5   Cu    Cu3+1 0.958960 0.499950 0.041020 1.054393
Cu6   Cu    Cu3+1 0.041040 0.499950 0.958980 1.053207
Cu7   Cu    Cu3+1 0.458960 0.999950 0.041020 1.051663
Cu8   Cu    Cu3+1 0.541040 0.999950 0.958980 1.058542
O29   O     O_R   0.965350 0.440100 0.034640 -0.558780
O30   O     O_R   0.034650 0.440100 0.965360 -0.559478
O31   O     O_R   0.465350 0.940100 0.034640 -0.558847
O32   O     O_R   0.534650 0.940100 0.965360 -0.559131
C99   C     C_1   0.999993 0.338483 0.000014 0.115232
C100  C     C_1   0.499983 0.838478 0.000047 0.114666
C101  C     C_R   0.999998 0.420410 0.000000 0.888463
C102  C     C_R   0.499997 0.920408 0.000025 0.889666
O33   O     O_R   0.499940 0.440170 0.947210 -0.572869
O34   O     O_R   0.500060 0.440170 0.052790 -0.572512
O35   O     O_R   0.999940 0.940170 0.947210 -0.572891
O36   O     O_R   0.000060 0.940170 0.052790 -0.572808
C103  C     C_R   0.499947 0.420696 0.000039 0.799135
C104  C     C_R   1.000000 0.920703 0.999993 0.799093
O37   O     O_R   0.559820 0.500010 0.887440 -0.578780
O38   O     O_R   0.440180 0.500010 0.112560 -0.579756
O39   O     O_R   0.059820 0.000010 0.887440 -0.579635
O40   O     O_R   0.940180 0.000010 0.112560 -0.579404
O41   O     O_R   0.559830 0.499950 0.992950 -0.550025
O42   O     O_R   0.440170 0.499950 0.007050 -0.550777
O43   O     O_R   0.059830 0.999950 0.992950 -0.550256
O44   O     O_R   0.940170 0.999950 0.007050 -0.550032
C105  C     C_R   0.579286 0.499970 0.920646 0.800998
C106  C     C_R   0.420714 0.499970 0.079354 0.798906
C107  C     C_R   0.079286 0.999970 0.920646 0.799545
C108  C     C_R   0.920714 0.999969 0.079354 0.799790
Cu9   Cu    Cu3+1 0.499970 0.500020 0.937550 1.047209
Cu10  Cu    Cu3+1 0.500030 0.500020 0.062450 1.047294
Cu11  Cu    Cu3+1 0.999970 0.000020 0.937550 1.047410
Cu12  Cu    Cu3+1 0.000030 0.000020 0.062450 1.047330
O45   O     O_R   0.500010 0.559860 0.947320 -0.562364
O46   O     O_R   0.499990 0.559860 0.052680 -0.562430
O47   O     O_R   0.000010 0.059860 0.947320 -0.561857
O48   O     O_R   0.999990 0.059860 0.052680 -0.562091
C109  C     C_R   0.499999 0.579316 0.000008 0.798177
C110  C     C_R   1.000000 0.079317 0.000007 0.797774
C111  C     C_R   0.502685 0.271816 0.941484 -0.243301
C112  C     C_R   0.494859 0.271920 0.060535 -0.244503
C113  C     C_R   0.002161 0.771901 0.942018 -0.246015
C114  C     C_R   0.997852 0.771927 0.057939 -0.245944
H29   H     H_    0.506135 0.288480 0.894877 0.178471
H30   H     H_    0.492252 0.288673 0.106364 0.177499
H31   H     H_    0.003474 0.788611 0.897337 0.176763
H32   H     H_    0.996538 0.788657 0.102617 0.176780
C115  C     C_R   0.498830 0.293697 0.000932 0.004220
C116  C     C_R   0.000005 0.793735 0.999978 0.007001
C117  C     C_R   0.997125 0.728329 0.058968 0.430122
C118  C     C_R   0.002894 0.728304 0.940994 0.430176
C119  C     C_R   0.494423 0.228326 0.061341 0.433166
C120  C     C_R   0.502323 0.228228 0.941505 0.439438
C121  C     C_R   0.000010 0.706418 0.999983 -0.084702
C122  C     C_R   0.499055 0.206384 0.000889 -0.087643
C123  C     C_1   0.499299 0.338518 0.000518 0.021386
C124  C     C_1   0.000002 0.838545 0.999975 0.019405
C125  C     C_1   0.000009 0.661556 0.999990 0.081293
C126  C     C_1   0.499767 0.161534 0.000358 0.086050
C127  C     C_1   0.000007 0.624109 0.999997 -0.068124
C128  C     C_1   0.499993 0.124093 0.000134 -0.068177
C129  C     C_1   0.499645 0.376023 0.000273 -0.143033
C130  C     C_1   0.000001 0.876043 0.999978 -0.143581
C131  C     C_R   0.480934 0.728140 0.068223 0.221761
C132  C     C_R   0.519043 0.728126 0.931885 0.221666
C133  C     C_R   0.982071 0.228149 0.067998 0.221172
C134  C     C_R   0.017923 0.228132 0.932050 0.221791
C135  C     C_R   0.499992 0.706296 0.000053 -0.245545
C136  C     C_R   0.999998 0.206303 0.000026 -0.245790
O49   O     O_3   0.075228 0.492502 0.120988 -0.602081
C137  C     C_3   0.115039 0.501011 0.106200 -0.292902
H33   H     H_    0.117801 0.531902 0.126034 0.188113
H34   H     H_    0.138350 0.499631 0.045139 0.191829
H35   H     H_    0.123208 0.476521 0.131890 0.175082
O50   O     O_3   0.924773 0.492491 0.878999 -0.602102
C138  C     C_3   0.884962 0.500989 0.893793 -0.291036
H36   H     H_    0.882197 0.531879 0.873985 0.187742
H37   H     H_    0.861650 0.499602 0.954853 0.192283
H38   H     H_    0.876795 0.476496 0.868081 0.175695
O51   O     O_3   0.575199 0.992351 0.121008 -0.602250
C139  C     C_3   0.615027 0.000768 0.106214 -0.290655
H39   H     H_    0.617856 0.031650 0.125989 0.188143
H40   H     H_    0.638339 0.999340 0.045157 0.192670
H41   H     H_    0.623138 0.976256 0.131957 0.175310
O52   O     O_3   0.424638 0.993676 0.879260 -0.600565
C140  C     C_3   0.384936 0.002779 0.894030 -0.291629
H42   H     H_    0.382625 0.033691 0.873725 0.186730
H43   H     H_    0.361647 0.001779 0.955125 0.191119
H44   H     H_    0.376353 0.978396 0.868788 0.175267
N1    N     N_R   0.707830 0.505473 0.909267 0.139285
O53   O     O_R   0.726583 0.522416 0.937307 -0.337685
O54   O     O_R   0.671935 0.487944 0.954258 -0.328841
N2    N     N_R   0.292171 0.505464 0.090734 0.138713
O55   O     O_R   0.273423 0.522402 0.062697 -0.338653
O56   O     O_R   0.328061 0.487930 0.045740 -0.332427
N3    N     N_R   0.207831 0.005382 0.909275 0.138818
O57   O     O_R   0.226584 0.022289 0.937343 -0.340335
O58   O     O_R   0.171936 0.987844 0.954236 -0.330275
N4    N     N_R   0.792172 0.006014 0.090793 0.139233
O59   O     O_R   0.773424 0.023169 0.062932 -0.336659
O60   O     O_R   0.828064 0.988525 0.045618 -0.329905
O61   O     O_3   0.792179 0.492597 0.596715 -0.537990
C141  C     C_3   0.794413 0.531683 0.565456 -0.177536
H45   H     H_    0.811474 0.554526 0.577394 0.168062
H46   H     H_    0.762958 0.543647 0.585411 0.133820
H47   H     H_    0.811859 0.528241 0.504069 0.221414
O62   O     O_3   0.207819 0.492630 0.403284 -0.539432
C142  C     C_3   0.205593 0.531721 0.434551 -0.178368
H48   H     H_    0.188536 0.554558 0.422619 0.168675
H49   H     H_    0.237051 0.543687 0.414597 0.133832
H50   H     H_    0.188148 0.528286 0.495937 0.221082
O63   O     O_3   0.292177 0.992684 0.596701 -0.538672
C143  C     C_3   0.294424 0.031797 0.565510 -0.179632
H51   H     H_    0.311502 0.054603 0.577472 0.168068
H52   H     H_    0.262972 0.043787 0.585499 0.133386
H53   H     H_    0.311859 0.028388 0.504119 0.221304
O64   O     O_3   0.707814 0.992113 0.403207 -0.540049
C144  C     C_3   0.705647 0.031053 0.434870 -0.173855
H54   H     H_    0.688646 0.054076 0.423133 0.169632
H55   H     H_    0.737121 0.042898 0.415073 0.134688
H56   H     H_    0.688174 0.027418 0.496224 0.221029
O65   O     O_3   0.003884 0.707128 0.884531 -0.549010
C145  C     C_3   0.045551 0.704078 0.823295 -0.183183
H57   H     H_    0.064648 0.686689 0.838265 0.152486
H58   H     H_    0.059237 0.735250 0.800798 0.136852
H59   H     H_    0.046519 0.686578 0.778260 0.235338
O66   O     O_3   0.996143 0.707179 0.115428 -0.549131
C146  C     C_3   0.954477 0.704113 0.176664 -0.183233
H60   H     H_    0.935384 0.686703 0.161690 0.152545
H61   H     H_    0.940783 0.735281 0.199174 0.136968
H62   H     H_    0.953517 0.686625 0.221690 0.235313
O67   O     O_3   0.508067 0.207124 0.880848 -0.533343
C147  C     C_3   0.468941 0.201020 0.892469 -0.209666
H63   H     H_    0.454014 0.231143 0.895631 0.142913
H64   H     H_    0.448111 0.182254 0.943467 0.127548
H65   H     H_    0.473375 0.183496 0.844426 0.235136
O68   O     O_3   0.492264 0.207256 0.118973 -0.541246
C148  C     C_3   0.450132 0.203174 0.177813 -0.194924
H66   H     H_    0.432539 0.185274 0.160132 0.144250
H67   H     H_    0.435434 0.234013 0.200258 0.136420
H68   H     H_    0.448239 0.185695 0.223724 0.235603
O69   O     O_3   0.967044 0.293374 0.133611 -0.508005
C149  C     C_3   0.999174 0.305685 0.141769 -0.074474
H69   H     H_    0.018517 0.330642 0.101767 0.130985
H70   H     H_    0.019271 0.279133 0.135359 0.147884
H71   H     H_    0.984941 0.318401 0.198701 0.227121
O70   O     O_3   0.032948 0.293337 0.866426 -0.509361
C150  C     C_3   0.000820 0.305623 0.858262 -0.074099
H72   H     H_    0.981477 0.330587 0.898256 0.131688
H73   H     H_    0.980721 0.279061 0.864679 0.148986
H74   H     H_    0.015054 0.318322 0.801326 0.226639
O71   O     O_3   0.464852 0.793370 0.134165 -0.510055
C151  C     C_3   0.496093 0.805590 0.144785 -0.072975
H75   H     H_    0.516005 0.830441 0.105146 0.132245
H76   H     H_    0.515744 0.778964 0.139881 0.148490
H77   H     H_    0.480952 0.818411 0.201858 0.228243
O72   O     O_3   0.535064 0.793340 0.865956 -0.510218
C152  C     C_3   0.503790 0.805476 0.855386 -0.071100
H78   H     H_    0.483817 0.830274 0.895108 0.132961
H79   H     H_    0.484200 0.778798 0.860219 0.148120
H80   H     H_    0.518894 0.818331 0.798351 0.229013
N5    N     N_R   0.921399 0.525587 0.393267 0.131117
O73   O     O_R   0.908061 0.551137 0.448774 -0.386106
O74   O     O_R   0.896296 0.496946 0.398604 -0.238569
N6    N     N_R   0.078603 0.525622 0.606753 0.131204
O75   O     O_R   0.091937 0.551171 0.551262 -0.386074
O76   O     O_R   0.103708 0.496992 0.601399 -0.239109
N7    N     N_R   0.421452 0.025789 0.393221 0.131282
O77   O     O_R   0.408176 0.051390 0.448640 -0.386295
O78   O     O_R   0.396287 0.997190 0.398664 -0.239046
N8    N     N_R   0.578805 0.024892 0.606381 0.130912
O79   O     O_R   0.592335 0.050366 0.550730 -0.383429
O80   O     O_R   0.603658 0.995998 0.601137 -0.239757
N9    N     N_R   0.458956 0.706095 0.138096 0.172111
O81   O     O_R   0.433488 0.676225 0.149498 -0.334517
O82   O     O_R   0.462329 0.717193 0.192218 -0.297475
N10   N     N_R   0.541035 0.706069 0.862010 0.172118
O83   O     O_R   0.566517 0.676225 0.850614 -0.334462
O84   O     O_R   0.537667 0.717135 0.807879 -0.297332
N11   N     N_R   0.961232 0.206107 0.137847 0.172659
O85   O     O_R   0.935418 0.176258 0.150937 -0.332403
O86   O     O_R   0.966023 0.217161 0.190341 -0.296657
N12   N     N_R   0.038764 0.206073 0.862205 0.172291
O87   O     O_R   0.064582 0.176240 0.849116 -0.334662
O88   O     O_R   0.033968 0.217097 0.809712 -0.297379
O89   O     O_3   0.924484 0.522280 0.264783 -0.517271
C153  C     C_3   0.892935 0.553057 0.296659 -0.048253
H81   H     H_    0.892825 0.569879 0.252090 0.163758
H82   H     H_    0.895715 0.575576 0.332564 0.154663
H83   H     H_    0.862388 0.537448 0.331851 0.171706
O90   O     O_3   0.075514 0.522318 0.735240 -0.517212
C154  C     C_3   0.107059 0.553105 0.703391 -0.049019
H84   H     H_    0.107168 0.569928 0.747974 0.163721
H85   H     H_    0.104277 0.575624 0.667506 0.154793
H86   H     H_    0.137609 0.537507 0.668185 0.171310
O91   O     O_3   0.424519 0.022429 0.264754 -0.516649
C155  C     C_3   0.393031 0.053268 0.296543 -0.051211
H87   H     H_    0.392966 0.070087 0.251925 0.162082
H88   H     H_    0.395846 0.075786 0.332409 0.154736
H89   H     H_    0.362452 0.037720 0.331753 0.171415
O92   O     O_3   0.575798 0.021312 0.734811 -0.521145
C156  C     C_3   0.607793 0.051630 0.702617 -0.027309
H90   H     H_    0.608154 0.068374 0.747007 0.172123
H91   H     H_    0.605345 0.074241 0.666467 0.160809
H92   H     H_    0.638109 0.035589 0.667594 0.167898
N13   N     N_R   0.972073 0.578764 0.220663 0.084656
O93   O     O_R   0.977587 0.609455 0.253368 -0.365900
O94   O     O_R   0.969436 0.587551 0.164849 -0.419563
N14   N     N_R   0.027918 0.578785 0.779406 0.084658
O95   O     O_R   0.022392 0.609472 0.746737 -0.365944
O96   O     O_R   0.030558 0.587575 0.835223 -0.419586
N15   N     N_R   0.472213 0.078826 0.220494 0.084827
O97   O     O_R   0.477695 0.109534 0.253212 -0.361873
O98   O     O_R   0.469616 0.087592 0.164631 -0.419733
N16   N     N_R   0.529050 0.078502 0.778366 0.088510
O99   O     O_R   0.524187 0.109343 0.745101 -0.355786
O100  O     O_R   0.531833 0.087183 0.834062 -0.399850
O101  O     O_3   0.052140 0.562428 0.154116 -0.579874
C157  C     C_3   0.069493 0.571788 0.078336 -0.122049
H93   H     H_    0.044687 0.578306 0.069600 0.186393
H94   H     H_    0.091033 0.548135 0.038087 0.169349
H95   H     H_    0.087716 0.600822 0.064642 0.168669
O102  O     O_3   0.947854 0.562424 0.845938 -0.579876
C158  C     C_3   0.930498 0.571778 0.921727 -0.121855
H96   H     H_    0.955304 0.578314 0.930464 0.186379
H97   H     H_    0.908968 0.548114 0.961953 0.169428
H98   H     H_    0.912264 0.600800 0.935451 0.168734
O103  O     O_3   0.552247 0.062324 0.154031 -0.580911
C159  C     C_3   0.569644 0.071662 0.078228 -0.115653
H99   H     H_    0.544865 0.078239 0.069443 0.186485
H100  H     H_    0.591144 0.047972 0.038025 0.169156
H101  H     H_    0.587924 0.100657 0.064510 0.170990
O104  O     O_3   0.448727 0.063254 0.845046 -0.584511
C160  C     C_3   0.431698 0.072877 0.920622 -0.167332
H102  H     H_    0.456688 0.078893 0.929059 0.185015
H103  H     H_    0.409778 0.049591 0.961291 0.181231
H104  H     H_    0.414027 0.102261 0.933958 0.148552
N17   N     N_R   0.957292 0.428772 0.349367 0.212643
O105  O     O_R   0.956389 0.389984 0.333497 -0.297193
O106  O     O_R   0.933877 0.439886 0.418912 -0.261520
N18   N     N_R   0.042718 0.428800 0.650571 0.212478
O107  O     O_R   0.043622 0.390011 0.666406 -0.298092
O108  O     O_R   0.066136 0.439922 0.581036 -0.262450
N19   N     N_R   0.457123 0.928875 0.349561 0.212552
O109  O     O_R   0.456121 0.890089 0.333788 -0.299683
O110  O     O_R   0.433756 0.940042 0.419084 -0.262327
N20   N     N_R   0.541733 0.928289 0.651670 0.212600
O111  O     O_R   0.542033 0.889474 0.668028 -0.301110
O112  O     O_R   0.565492 0.939140 0.582040 -0.260714
N21   N     N_R   0.956132 0.438036 0.224734 0.198568
O113  O     O_R   0.963403 0.409102 0.176930 -0.368962
O114  O     O_R   0.917972 0.444169 0.280439 -0.184789
N22   N     N_R   0.043871 0.438060 0.775215 0.198476
O115  O     O_R   0.036600 0.409122 0.822992 -0.369360
O116  O     O_R   0.082032 0.444208 0.719523 -0.186041
N23   N     N_R   0.455960 0.938149 0.224924 0.198405
O117  O     O_R   0.463151 0.909251 0.177113 -0.371458
O118  O     O_R   0.417821 0.944339 0.280666 -0.185824
N24   N     N_R   0.543070 0.937650 0.776079 0.198297
O119  O     O_R   0.535459 0.908934 0.824405 -0.373513
O120  O     O_R   0.581283 0.943176 0.720116 -0.185489

loop_
_geom_bond_atom_site_label_1
_geom_bond_atom_site_label_2
_geom_bond_distance
_ccdc_geom_bond_type
C55   C59   1.402421 A    
N3    O58   1.301116 A    
C141  H46   1.113044 S    
C25   O91   1.429093 S    
O28   Cu7   1.984617 S    
O67   C147  1.409479 S    
C11   C109  1.435977 S    
N9    O81   1.301336 A    
C145  H57   1.113670 S    
C24   N14   1.492786 S    
H23   C73   1.083860 S    
O28   C98   1.285419 A    
N17   O106  1.300257 A    
C51   C55   1.417261 A    
C132  N10   1.441453 S    
O46   C109  1.301939 A    
C47   N21   1.477765 S    
O63   C143  1.409572 S    
C56   C60   1.402421 A    
C13   C16   1.409257 A    
O52   C140  1.420414 S    
C34   H12   1.116260 S    
O22   Cu6   1.986518 S    
C43   O49   1.434741 S    
C63   O61   1.382287 S    
O26   C96   1.285037 A    
N6    O75   1.301554 A    
C146  H61   1.113143 S    
O25   C95   1.285030 A    
O4    C4    1.284317 A    
O21   C95   1.286468 A    
O34   C103  1.305787 A    
O17   C93   1.284877 A    
O47   C110  1.301951 A    
C94   C128  1.436228 S    
C54   N4    1.442303 S    
C33   N19   1.478070 S    
C140  H42   1.112800 S    
C32   N18   1.478094 S    
C82   C86   1.206280 T    
C123  C129  1.208563 T    
C41   C49   1.586704 S    
N14   O95   1.302153 A    
C1    C83   1.435498 S    
C156  H92   1.109219 S    
N8    O79   1.301546 A    
Cu11  Cu12  2.707196 S    
N12   O87   1.301328 A    
O16   Cu4   1.985551 S    
O34   Cu10  1.939713 S    
C54   C58   1.417259 A    
O35   Cu11  1.939824 S    
C155  H89   1.109213 S    
C117  C121  1.408225 A    
O7    Cu4   1.939864 S    
O72   C152  1.412655 S    
C56   C76   1.445352 S    
C18   C131  1.411762 A    
C152  H80   1.109352 S    
O15   C7    1.278471 A    
O49   C137  1.420411 S    
O41   Cu10  1.936765 S    
O91   C155  1.419927 S    
O70   C150  1.412680 S    
O44   Cu11  1.936761 S    
O9    C5    1.285782 A    
C137  H34   1.109270 S    
C23   C39   1.604356 S    
C29   H19   1.111572 S    
C81   C85   1.206280 T    
H24   C74   1.083863 S    
O68   C148  1.409421 S    
C122  C126  1.445357 S    
O8    Cu4   1.939815 S    
C25   C41   1.604329 S    
C158  H96   1.102012 S    
Cu12  O48   1.939927 S    
C19   C23   1.590219 S    
C20   C24   1.590248 S    
O41   C105  1.303376 A    
C117  O66   1.382109 S    
C88   C106  1.436963 S    
N23   O118  1.300418 A    
O3    Cu2   1.938507 S    
N10   O83   1.301338 A    
C19   H1    1.107623 S    
C160  H102  1.101623 S    
C31   C35   1.573795 S    
C32   C36   1.573837 S    
C147  H64   1.113608 S    
N13   O93   1.302155 A    
C143  H53   1.109359 S    
C113  C116  1.400120 A    
H5    C27   1.114949 S    
O90   C154  1.419929 S    
C79   C83   1.206280 T    
O3    C3    1.284297 A    
O38   C106  1.303804 A    
C33   C37   1.573727 S    
O39   Cu11  1.939832 S    
N5    O73   1.301556 A    
C140  H44   1.109806 S    
C21   H3    1.107648 S    
C44   O50   1.434742 S    
C9    C101  1.434163 S    
N21   O113  1.301326 A    
O19   Cu7   1.939380 S    
Cu7   O31   1.939491 S    
N2    O55   1.301606 A    
C16   C133  1.411743 A    
C40   C96   1.503151 S    
C142  H49   1.113043 S    
C154  H84   1.109532 S    
C133  C136  1.414211 A    
C15   O70   1.384944 S    
C39   C47   1.586670 S    
C154  H86   1.109214 S    
C16   O69   1.384943 S    
N1    O53   1.301607 A    
C104  C130  1.439067 S    
C61   C65   1.402878 A    
N22   O115  1.301334 A    
C26   C42   1.604594 S    
C22   H4    1.107752 S    
O61   C141  1.409569 S    
C142  H50   1.109360 S    
C131  C135  1.414096 A    
C28   H18   1.111572 S    
C41   C97   1.503158 S    
C151  H75   1.110592 S    
C70   C74   1.399558 A    
N16   O99   1.302204 A    
C53   C73   1.407288 A    
C31   H9    1.116251 S    
O5    Cu3   1.939864 S    
C126  C128  1.206453 T    
O17   Cu5   1.939380 S    
N23   O117  1.301310 A    
C159  H99   1.102050 S    
C27   C35   1.552571 S    
C57   C77   1.445353 S    
C28   C36   1.552555 S    
C69   C81   1.442911 S    
O8    C4    1.284275 A    
C27   C43   1.566790 S    
O26   Cu5   1.984617 S    
C4    C86   1.435501 S    
C144  H54   1.113704 S    
C148  H67   1.113178 S    
C137  H33   1.112802 S    
C24   C40   1.604370 S    
C139  H40   1.109270 S    
O92   C156  1.419882 S    
N24   O120  1.300480 A    
N13   O94   1.300703 A    
C160  H104  1.108934 S    
C149  H70   1.113764 S    
C92   C136  1.448685 S    
C112  C119  1.404805 A    
C34   C38   1.574002 S    
O13   Cu3   1.985664 S    
C20   N6    1.475261 S    
C60   C64   1.402880 A    
C143  H51   1.113695 S    
C46   O104  1.435277 S    
C68   C72   1.399560 A    
C75   C87   1.207440 T    
C131  N9    1.441436 S    
C90   C108  1.436962 S    
O5    C1    1.284290 A    
C49   N23   1.477782 S    
C153  H82   1.112245 S    
C112  H30   1.083733 S    
C155  H88   1.112237 S    
C103  C129  1.439518 S    
O15   Cu4   1.985664 S    
C22   C26   1.590280 S    
C65   C69   1.404005 A    
O32   C102  1.283784 A    
C67   C71   1.399560 A    
C138  H38   1.109809 S    
H21   C71   1.083864 S    
C114  C117  1.405027 A    
C64   C68   1.404005 A    
C153  H83   1.109212 S    
C54   C74   1.407282 A    
C61   H27   1.084040 S    
C32   C48   1.555453 S    
C41   C45   1.611112 S    
C133  N11   1.441492 S    
O14   C6    1.278325 A    
C118  O65   1.382110 S    
C65   O63   1.382285 S    
N18   O107  1.301873 A    
C58   C78   1.445353 S    
C59   H25   1.084038 S    
C142  H48   1.113699 S    
C141  H45   1.113695 S    
C59   C63   1.402883 A    
C118  C121  1.408228 A    
C145  H58   1.113146 S    
C151  H77   1.109355 S    
C150  H74   1.109424 S    
O10   C6    1.285854 A    
N4    O59   1.301607 A    
H22   C72   1.083865 S    
C158  H98   1.108846 S    
C40   C48   1.586650 S    
C33   C49   1.555491 S    
N17   O105  1.301873 A    
C23   O89   1.429093 S    
C159  H101  1.108845 S    
C52   C56   1.417259 A    
C139  H39   1.112806 S    
C13   C15   1.409251 A    
C48   N22   1.477768 S    
C27   H17   1.111574 S    
Cu11  O47   1.939813 S    
Cu9   O45   1.939813 S    
C20   H2    1.107626 S    
C119  C122  1.408163 A    
O64   C144  1.409572 S    
C145  H59   1.109003 S    
N6    O76   1.300240 A    
C144  H56   1.109364 S    
C113  H31   1.083727 S    
C87   C105  1.436964 S    
C49   H15   1.115515 S    
O36   Cu12  1.939713 S    
O19   C94   1.284922 A    
O102  C158  1.414576 S    
C14   C17   1.409073 A    
O51   C139  1.420413 S    
C48   H14   1.115510 S    
O43   Cu12  1.936765 S    
C141  H47   1.109361 S    
N14   O96   1.300695 A    
Cu7   Cu8   2.643609 S    
C66   O64   1.382298 S    
C156  H91   1.112215 S    
N8    O80   1.300247 A    
Cu6   O30   1.939445 S    
C12   C92   1.207055 T    
H8    C30   1.114925 S    
O38   Cu10  1.939832 S    
N12   O88   1.300735 A    
O39   C107  1.303804 A    
N15   O97   1.302178 A    
O37   C105  1.303804 A    
C91   C135  1.448634 S    
C111  C120  1.404586 A    
O42   C106  1.303377 A    
C21   C25   1.590228 S    
C152  H79   1.113707 S    
C10   C102  1.434256 S    
C12   C110  1.436064 S    
O40   C108  1.303804 A    
Cu8   O32   1.939445 S    
C138  H36   1.112802 S    
C8    C38   1.489937 S    
C53   N3    1.442302 S    
C34   C50   1.555268 S    
C111  H29   1.083711 S    
O18   C93   1.284884 A    
C13   C99   1.445444 S    
C42   C50   1.586448 S    
C14   C100  1.445534 S    
N9    O82   1.300697 A    
O12   Cu2   1.985406 S    
O24   Cu8   1.986518 S    
C17   O72   1.384781 S    
C76   C88   1.207441 T    
C150  H72   1.110586 S    
C29   C45   1.566780 S    
O1    C1    1.284299 A    
N10   O84   1.300690 A    
C31   C47   1.555495 S    
C42   C98   1.503096 S    
C77   C89   1.207440 T    
C50   H16   1.115545 S    
C139  H41   1.109809 S    
C46   O52   1.434670 S    
C70   C82   1.442910 S    
O43   C107  1.303376 A    
N11   O85   1.301327 A    
C39   C95   1.503130 S    
C115  C123  1.444307 S    
C146  H62   1.109011 S    
C30   H20   1.111606 S    
C120  O67   1.382046 S    
C24   O90   1.429093 S    
O20   C94   1.284675 A    
C120  C122  1.408592 A    
C112  C115  1.400277 A    
C140  H43   1.109269 S    
C125  C127  1.206639 T    
O50   C138  1.420411 S    
C52   N2    1.442303 S    
C157  H94   1.106588 S    
C132  C135  1.414070 A    
C60   H26   1.084041 S    
N2    O56   1.301114 A    
C45   O103  1.435282 S    
O31   C102  1.283747 A    
O103  C159  1.414595 S    
H7    C29   1.114954 S    
O24   C98   1.286272 A    
O69   C149  1.412685 S    
C18   O71   1.384806 S    
C29   C37   1.552501 S    
O104  C160  1.414576 S    
O6    C2    1.284281 A    
O4    Cu2   1.938549 S    
C154  H85   1.112247 S    
O27   Cu8   1.984616 S    
C51   C71   1.407287 A    
C9    C99   1.205715 T    
C157  H95   1.108846 S    
N22   O116  1.300410 A    
C10   C100  1.205753 T    
N7    O77   1.301552 A    
C47   H13   1.115510 S    
C19   N5    1.475262 S    
C7    C37   1.489765 S    
C151  H76   1.113719 S    
O2    Cu1   1.938549 S    
O10   Cu1   1.985406 S    
O27   C97   1.285026 A    
Cu9   Cu10  2.707196 S    
O29   C101  1.283748 A    
O36   C104  1.305519 A    
C5    C35   1.489770 S    
C30   C46   1.566803 S    
C6    C36   1.489769 S    
C32   H10   1.116253 S    
C159  H100  1.106581 S    
C42   C46   1.610883 S    
C45   O51   1.434743 S    
N20   O111  1.301879 A    
O22   C96   1.286485 A    
O23   C97   1.286475 A    
C89   C107  1.436964 S    
O13   C5    1.278393 A    
O71   C151  1.412653 S    
C28   C44   1.566802 S    
C15   C134  1.411737 A    
C148  H66   1.113691 S    
N19   O109  1.301873 A    
C40   C44   1.611119 S    
O21   Cu5   1.986516 S    
C51   N1    1.442302 S    
O7    C3    1.284295 A    
C160  H103  1.106608 S    
C149  H71   1.109423 S    
C62   C66   1.402899 A    
C147  H63   1.113231 S    
C25   N15   1.492840 S    
C3    C85   1.435495 S    
O66   C146  1.409482 S    
C67   C79   1.442911 S    
O33   Cu9   1.939824 S    
C137  H35   1.109809 S    
C69   C73   1.399560 A    
N19   O110  1.300261 A    
C26   N16   1.492964 S    
C30   C38   1.552809 S    
Cu5   Cu6   2.643609 S    
N5    O74   1.300238 A    
O42   Cu9   1.936761 S    
N21   O114  1.300410 A    
C34   N20   1.478130 S    
C119  O68   1.382018 S    
O11   C7    1.285715 A    
O12   C8    1.285866 A    
C43   O101  1.435270 S    
O1    Cu1   1.938507 S    
C138  H37   1.109271 S    
O9    Cu1   1.985301 S    
O30   C101  1.283737 A    
C80   C84   1.206279 T    
C2    C84   1.435495 S    
C57   C61   1.402420 A    
N1    O54   1.301115 A    
O37   Cu9   1.939832 S    
O16   C8    1.278334 A    
C31   N17   1.478086 S    
N18   O108  1.300256 A    
O40   Cu12  1.939832 S    
C121  C125  1.445544 S    
O11   Cu2   1.985301 S    
C21   C37   1.570188 S    
N15   O98   1.300679 A    
O65   C145  1.409488 S    
O33   C103  1.305509 A    
O44   C108  1.303377 A    
C150  H73   1.113763 S    
N4    O60   1.301115 A    
C158  H97   1.106588 S    
C26   O92   1.429103 S    
C44   O102  1.435262 S    
O6    Cu3   1.939815 S    
C93   C127  1.436566 S    
C111  C115  1.400596 A    
O101  C157  1.414585 S    
C66   C70   1.403997 A    
C143  H52   1.113046 S    
N11   O86   1.300737 A    
C134  C136  1.414211 A    
C144  H55   1.113034 S    
C146  H60   1.113671 S    
C68   C80   1.442910 S    
C148  H68   1.109148 S    
Cu5   O29   1.939491 S    
C11   C91   1.207007 T    
N3    O57   1.301606 A    
O2    C2    1.284312 A    
C64   O62   1.382287 S    
C113  C118  1.405031 A    
C55   C75   1.445353 S    
N24   O119  1.301248 A    
C62   H28   1.084041 S    
O35   C104  1.305552 A    
C33   H11   1.116254 S    
C149  H69   1.110587 S    
C78   C90   1.207438 T    
O20   Cu8   1.939425 S    
C14   C18   1.409086 A    
C52   C72   1.407287 A    
C147  H65   1.109364 S    
O14   Cu3   1.985551 S    
C17   C132  1.411740 A    
O18   Cu6   1.939425 S    
C63   C67   1.404001 A    
Cu1   Cu3   2.643212 S    
C19   C35   1.570070 S    
C156  H90   1.109496 S    
Cu2   Cu4   2.643212 S    
C20   C36   1.570032 S    
C21   N7    1.475241 S    
O25   Cu6   1.984616 S    
C134  N12   1.441489 S    
C39   C43   1.611102 S    
C153  H81   1.109533 S    
N7    O78   1.300233 A    
C157  H93   1.102024 S    
O45   C109  1.301944 A    
C155  H87   1.109541 S    
N16   O100  1.300733 A    
C58   C62   1.402420 A    
N20   O112  1.300193 A    
C152  H78   1.110609 S    
C124  C130  1.208292 T    
C22   N8    1.475226 S    
O48   C110  1.301972 A    
O62   C142  1.409569 S    
Cu10  O46   1.939927 S    
O23   Cu7   1.986516 S    
C116  C124  1.443874 S    
C114  H32   1.083729 S    
C22   C38   1.570166 S    
C114  C116  1.400124 A    
C50   N24   1.477860 S    
O89   C153  1.419930 S    
C23   N13   1.492806 S    
C53   C57   1.417260 A    
H6    C28   1.114949 S    
