data_mof_unit_pretest_880.cif
_audit_creation_date              2012-10-26T19:21:05-0400
_audit_creation_method            fapswitch 2.2
_symmetry_space_group_name_H-M    P1
_symmetry_Int_Tables_number       1
_space_group_crystal_system       triclinic
_cell_length_a                    9.848097
_cell_length_b                    11.012506
_cell_length_c                    13.398689
_cell_angle_alpha                 94.786067
_cell_angle_beta                  81.396755
_cell_angle_gamma                 111.919615
_cell_volume                      1332.29784207

loop_
_atom_site_label
_atom_site_type_symbol
_atom_type_description
_atom_site_fract_x
_atom_site_fract_y
_atom_site_fract_z
_atom_type_partial_charge
C1    C     C_R   0.556447 0.746020 0.509388 0.523138
C2    C     C_R   0.371029 0.477138 0.799760 -0.053425
C3    C     C_2   0.586120 0.886199 0.520374 0.364961
C4    C     C_R   0.422368 0.490906 0.690792 0.536996
C5    C     C_2   0.473936 0.927776 0.525601 -0.128146
C6    C     C_2   0.408888 0.110892 0.484177 -0.002200
C7    C     C_2   0.497967 0.066831 0.525604 -0.077456
C8    C     C_2   0.922528 0.489701 0.491580 0.579485
C9    C     C_2   0.076229 0.508054 0.510013 0.594834
C10   C     C_R   0.443011 0.253360 0.490262 0.564256
C11   C     C_R   0.578016 0.512815 0.309509 0.532976
C12   C     C_R   0.436289 0.485819 0.970124 -0.060197
C13   C     C_R   0.794998 0.673917 0.070756 0.436737
C14   C     C_R   0.626143 0.536414 0.201670 -0.049104
C15   C     C_R   0.232818 0.379775 0.829297 0.423681
C16   C     C_R   0.195340 0.337411 0.927566 0.446856
C17   C     C_R   0.296999 0.385479 0.996109 -0.116583
C18   C     C_3   0.280258 0.014937 0.431665 -0.291867
C19   C     C_3   0.211661 0.074358 0.363158 -0.334318
C20   C     C_3   0.590334 0.763780 0.784757 -0.236123
C21   C     C_3   0.456458 0.804026 0.812733 -0.414350
C22   C     C_R   0.466677 0.541750 0.873488 -0.083983
C23   C     C_R   0.545543 0.532649 0.037200 -0.057260
C24   C     C_R   0.683222 0.633034 0.006667 0.055736
C25   C     C_R   0.702490 0.698069 0.917069 0.459639
C26   C     C_R   0.589230 0.661686 0.855542 0.043253
C27   C     C_R   0.521030 0.484762 0.134996 -0.123528
C28   C     C_R   0.765786 0.626046 0.167842 -0.083402
Cu1   Cu    Cu3+1 0.362000 0.479240 0.482530 1.172155
Cu2   Cu    Cu3+1 0.638000 0.520760 0.517470 1.178297
F1    F     F_    0.727175 0.972311 0.522484 -0.589159
F2    F     F_    0.136146 0.589903 0.586694 -0.589878
F3    F     F_    0.860179 0.403442 0.417814 -0.577391
F4    F     F_    0.099077 0.370337 0.378489 -0.513145
F5    F     F_    0.905941 0.638824 0.615590 -0.486271
F6    F     F_    0.827550 0.803888 0.893189 -0.514516
F7    F     F_    0.929948 0.765871 0.042454 -0.530251
F8    F     F_    0.137070 0.319054 0.761489 -0.532614
F9    F     F_    0.062761 0.241938 0.954994 -0.520699
H1    H     H_    0.848809 0.665983 0.218664 0.165809
H2    H     H_    0.192084 0.956676 0.489682 0.199351
H3    H     H_    0.352830 0.720954 0.800885 0.192941
H4    H     H_    0.450056 0.838747 0.892935 0.193185
H5    H     H_    0.466829 0.884839 0.764224 0.174326
H6    H     H_    0.689701 0.854536 0.787548 0.250735
H7    H     H_    0.596014 0.730444 0.705529 0.181588
H8    H     H_    0.361904 0.857482 0.525325 0.148932
H9    H     H_    0.417804 0.412024 0.164404 0.155111
H10   H     H_    0.261706 0.341317 0.068717 0.167297
H11   H     H_    0.593205 0.134646 0.558848 0.218033
H12   H     H_    0.139879 0.121428 0.408639 0.246488
H13   H     H_    0.298668 0.145776 0.311951 0.170043
H14   H     H_    0.140647 0.995228 0.315947 0.169694
H15   H     H_    0.320939 0.946080 0.382281 0.154817
N1    N     N_2   0.845330 0.551960 0.543750 0.036461
N2    N     N_2   0.154690 0.448120 0.456210 0.043413
O1    O     O_R   0.426290 0.668220 0.490680 -0.531003
O2    O     O_R   0.659360 0.703290 0.520190 -0.460070
O3    O     O_R   0.326580 0.473880 0.629020 -0.406575
O4    O     O_R   0.559660 0.508940 0.658530 -0.493982
O5    O     O_R   0.340640 0.296710 0.479810 -0.482195
O6    O     O_R   0.573710 0.331780 0.509320 -0.477512
O7    O     O_R   0.440340 0.491060 0.341470 -0.489571
O8    O     O_R   0.673420 0.526120 0.370980 -0.474448

loop_
_geom_bond_atom_site_label_1
_geom_bond_atom_site_label_2
_ccdc_geom_bond_type
C12   C17   A    
C6    C10   S    
C2    C4    S    
C23   C24   A    
Cu1   O7    S    
C13   C28   A    
F4    N2    S    
C6    C7    D    
Cu1   N2    S    
Cu2   O8    S    
C14   C27   A    
C21   H5    S    
Cu2   N1    S    
C13   F7    S    
C20   H6    S    
C3    C5    D    
C4    O4    A    
C15   F8    S    
C9    N2    D    
C2    C22   A    
C24   C25   A    
C3    F1    S    
C2    C15   A    
C5    H8    S    
C12   C23   A    
C19   H14   S    
C10   O6    A    
C20   C26   S    
Cu2   O2    S    
C4    O3    A    
Cu2   O4    S    
C13   C24   A    
Cu1   O1    S    
C11   O8    A    
C11   O7    A    
C8    F3    S    
Cu2   O6    S    
C27   H9    S    
C6    C18   S    
C11   C14   S    
Cu1   O5    S    
C10   O5    A    
C18   H15   S    
C25   F6    S    
Cu1   Cu2   S    
C15   C16   A    
C19   H12   S    
C1    O2    A    
C12   C22   A    
C20   C21   S    
C8    N1    D    
C18   C19   S    
C22   C26   A    
C18   H2    S    
C17   H10   S    
C5    C7    S    
Cu1   O3    S    
C16   C17   A    
C16   F9    S    
C9    F2    S    
C14   C28   A    
C25   C26   A    
C21   H4    S    
F5    N1    S    
C19   H13   S    
C20   H7    S    
C23   C27   A    
C21   H3    S    
C7    H11   S    
C28   H1    S    
C8    C9    S    
C1    C3    S    
C1    O1    A    
