data_mof_unit_pretest_872.cif
_audit_creation_date              2013-03-05T15:52:00-0500
_audit_creation_method            fapswitch 2.2
_symmetry_space_group_name_H-M    P1
_symmetry_Int_Tables_number       1
_space_group_crystal_system       triclinic
_cell_length_a                    12.100371
_cell_length_b                    12.777242
_cell_length_c                    27.582463
_cell_angle_alpha                 91.176614
_cell_angle_beta                  89.755752
_cell_angle_gamma                 94.31187
_cell_volume                      4251.5243893

loop_
_atom_site_label
_atom_site_type_symbol
_atom_site_description
_atom_site_fract_x
_atom_site_fract_y
_atom_site_fract_z
_atom_type_partial_charge
O1    O     O_R   0.421700 0.658820 0.502400 -0.629098
O2    O     O_R   0.578300 0.341180 0.497600 -0.626905
O3    O     O_R   0.609310 0.646410 0.496630 -0.576930
O4    O     O_R   0.390690 0.353590 0.503370 -0.601328
C1    C     C_R   0.523082 0.700332 0.497821 0.897378
C2    C     C_R   0.477775 0.300491 0.505123 0.902235
O5    O     O_R   0.406200 0.506190 0.574130 -0.641395
O6    O     O_R   0.593800 0.493810 0.425870 -0.640389
O7    O     O_R   0.593820 0.493770 0.568360 -0.595982
O8    O     O_R   0.406180 0.506230 0.431640 -0.578188
C3    C     C_R   0.503075 0.499311 0.593753 0.872667
C4    C     C_R   0.497213 0.499612 0.406333 0.878991
Zn1   Zn    Zn3+2 0.374730 0.508290 0.503850 0.975480
Zn2   Zn    Zn3+2 0.625270 0.491710 0.496150 0.964686
C5    C     C_R   0.580261 0.568812 0.822214 0.542412
C6    C     C_R   0.524990 0.401709 0.178266 0.541369
O9    O     O_2   0.616310 0.652563 0.796041 -0.599586
O10   O     O_2   0.550748 0.320891 0.205639 -0.602620
N1    N     N_R   0.537104 0.480958 0.798155 -0.322494
N2    N     N_R   0.499915 0.492873 0.200965 -0.320627
C7    C     C_R   0.504757 0.390491 0.821159 0.567304
C8    C     C_R   0.487240 0.581982 0.176025 0.552905
C9    C     C_R   0.603297 0.440601 0.717535 -0.126387
C10   C     C_R   0.572699 0.560167 0.278299 -0.122098
C11   C     C_R   0.596497 0.445599 0.667582 -0.192388
C12   C     C_R   0.572668 0.562382 0.328506 -0.214489
C13   C     C_R   0.429158 0.537986 0.675485 -0.278914
C14   C     C_R   0.414369 0.434448 0.328679 -0.282914
C15   C     C_R   0.434367 0.533080 0.726107 0.011715
C16   C     C_R   0.409963 0.434731 0.277963 0.014742
C17   C     C_R   0.523686 0.484343 0.746873 0.264113
C18   C     C_R   0.492201 0.496986 0.252736 0.264140
C19   C     C_R   0.545116 0.478884 0.897857 -0.090659
C20   C     C_R   0.517239 0.487827 0.101136 -0.096146
C21   C     C_R   0.582869 0.572121 0.873417 -0.060223
C22   C     C_R   0.523997 0.393441 0.127088 -0.054051
C23   C     C_R   0.621072 0.663559 0.901173 0.155503
C24   C     C_R   0.531749 0.296394 0.101010 0.153265
C25   C     C_R   0.516495 0.384340 0.871636 -0.099535
C26   C     C_R   0.509486 0.584864 0.126102 -0.105679
C27   C     C_R   0.510115 0.495040 0.646351 -0.069659
C28   C     C_R   0.492992 0.500138 0.353780 -0.029473
H1    H     H_    0.361919 0.575195 0.658610 0.186596
H2    H     H_    0.357419 0.382264 0.348711 0.210571
C29   C     C_R   0.525259 0.580125 0.024429 -0.001315
C30   C     C_R   0.504879 0.387104 0.973621 -0.001118
C31   C     C_R   0.517074 0.389008 0.024671 0.022959
C32   C     C_R   0.553503 0.575600 0.974720 0.023379
C33   C     C_R   0.520298 0.485717 0.050177 0.033326
C34   C     C_R   0.535830 0.480121 0.948692 0.033482
C35   C     C_R   0.503683 0.674888 0.049315 0.150435
C36   C     C_R   0.463648 0.296627 0.946696 0.150375
C37   C     C_R   0.515999 0.679996 0.100150 0.146689
C38   C     C_R   0.489658 0.289821 0.896870 0.137921
O11   O     O_2   0.447896 0.665320 0.199401 -0.568305
O12   O     O_2   0.454054 0.310040 0.795283 -0.583613
C39   C     C_R   0.606518 0.661867 0.951638 -0.196979
C40   C     C_R   0.532624 0.297823 0.050156 -0.195529
H3    H     H_    0.635479 0.611879 0.347646 0.143844
H4    H     H_    0.657529 0.408967 0.645555 0.200663
H5    H     H_    0.636268 0.606939 0.258978 0.140373
H6    H     H_    0.670931 0.402854 0.733725 0.145664
H7    H     H_    0.640392 0.726236 0.974098 0.161507
H8    H     H_    0.551079 0.228571 0.029723 0.161054
C41   C     C_R   0.465118 0.188978 0.513912 -0.119670
C42   C     C_R   0.541473 0.813118 0.497767 -0.112910
C43   C     C_R   0.637331 0.976990 0.473539 0.155551
C44   C     C_R   0.402261 0.031933 0.558220 0.174020
C45   C     C_R   0.628067 0.866383 0.470989 0.118396
C46   C     C_R   0.399633 0.142264 0.551878 0.107123
C47   C     C_R   0.470817 0.867074 0.527357 -0.295536
C48   C     C_R   0.537936 0.132092 0.487315 -0.282692
C49   C     C_R   0.474445 0.975602 0.527964 0.081292
C50   C     C_R   0.550967 0.028688 0.496603 0.080241
H9    H     H_    0.585663 0.170817 0.458753 0.173159
H10   H     H_    0.409604 0.821892 0.548393 0.175898
N3    N     N_R   0.207800 0.519340 0.508990 -0.162267
N4    N     N_R   0.792200 0.480660 0.491010 -0.153639
C51   C     C_R   0.943266 0.419990 0.444918 0.079503
C52   C     C_R   0.056336 0.595333 0.548356 0.100655
C53   C     C_R   0.829934 0.428241 0.452363 -0.032203
C54   C     C_R   0.169075 0.579301 0.544976 -0.025407
C55   C     C_R   0.862245 0.529338 0.524698 0.024859
C56   C     C_R   0.138862 0.474182 0.473886 0.048747
C57   C     C_R   0.979257 0.533664 0.517800 -0.061642
C58   C     C_R   0.021165 0.474473 0.478196 -0.048984
H11   H     H_    0.228356 0.622320 0.568630 0.148564
H12   H     H_    0.769532 0.389796 0.427806 0.150601
C59   C     C_3   0.333270 0.209319 0.586422 -0.429255
C60   C     C_3   0.389706 0.226997 0.635696 -0.810172
H13   H     H_    0.379614 0.155851 0.657894 0.271984
H14   H     H_    0.479338 0.250052 0.630853 0.252072
H15   H     H_    0.351415 0.290975 0.656055 0.262478
H16   H     H_    0.321564 0.287767 0.572800 0.243052
H17   H     H_    0.246801 0.175432 0.590478 0.196094
C61   C     C_3   0.700448 0.807358 0.435923 -0.397061
C62   C     C_3   0.808813 0.778456 0.459070 -0.772099
H18   H     H_    0.867455 0.848206 0.465193 0.236885
H19   H     H_    0.793494 0.741196 0.494509 0.299182
H20   H     H_    0.849534 0.722501 0.434756 0.239900
H21   H     H_    0.654320 0.735175 0.421484 0.200290
H22   H     H_    0.719056 0.853625 0.402855 0.187418
C63   C     C_3   0.743704 0.039972 0.457877 -0.429016
C64   C     C_3   0.803540 0.089613 0.502496 -0.827167
H23   H     H_    0.757328 0.154125 0.518188 0.272764
H24   H     H_    0.812122 0.029461 0.530497 0.264549
H25   H     H_    0.887886 0.122216 0.492803 0.243258
H26   H     H_    0.802893 0.992149 0.438812 0.218469
H27   H     H_    0.727183 0.100732 0.431329 0.192802
C65   C     C_3   0.332145 0.974477 0.597354 -0.428125
C66   C     C_3   0.403784 0.935711 0.638067 -0.813491
H28   H     H_    0.462444 0.000055 0.652073 0.263172
H29   H     H_    0.349647 0.906957 0.668347 0.261950
H30   H     H_    0.452556 0.870200 0.625673 0.255564
H31   H     H_    0.271133 0.023107 0.614699 0.218757
H32   H     H_    0.279882 0.907975 0.580994 0.188827
C67   C     C_2   0.189777 0.444769 0.428227 0.964845
O13   O     O_2   0.232497 0.361419 0.423837 -0.631976
O14   O     O_R   0.188260 0.514305 0.389743 -0.812585
H33   H     H_    0.212695 0.483016 0.357886 0.334817
C68   C     C_2   0.814535 0.560496 0.571431 0.956555
O15   O     O_2   0.828464 0.507855 0.607054 -0.660721
O16   O     O_R   0.754093 0.649344 0.575181 -0.812350
H34   H     H_    0.727102 0.662772 0.609440 0.342584
C69   C     C_3   0.971110 0.350467 0.401558 -0.409837
C70   C     C_3   0.009745 0.244761 0.416632 -0.784584
H35   H     H_    0.054392 0.250617 0.451784 0.267221
H36   H     H_    0.937064 0.187198 0.419813 0.237769
H37   H     H_    0.065251 0.214614 0.388281 0.280301
H38   H     H_    0.897239 0.332598 0.378085 0.195611
H39   H     H_    0.029279 0.391196 0.376183 0.231859
C71   C     C_3   0.029326 0.691385 0.578253 -0.461598
C72   C     C_3   0.041810 0.675578 0.632718 -0.755419
H40   H     H_    0.993472 0.603615 0.644613 0.297114
H41   H     H_    0.130205 0.669204 0.642056 0.253909
H42   H     H_    0.012076 0.744054 0.652974 0.250911
H43   H     H_    0.087938 0.758552 0.567872 0.197120
H44   H     H_    0.947537 0.718810 0.569757 0.228126
C73   C     C_2   0.346085 0.578447 0.756009 0.929758
O17   O     O_2   0.284816 0.638588 0.737792 -0.645976
O18   O     O_R   0.331030 0.551818 0.804632 -0.805808
H45   H     H_    0.268354 0.588055 0.820713 0.345949
C74   C     C_2   0.318812 0.371283 0.252523 0.931489
O19   O     O_2   0.269249 0.297564 0.272904 -0.623978
O20   O     O_R   0.287166 0.397038 0.205808 -0.804584
H46   H     H_    0.224200 0.347955 0.192595 0.345658
C75   C     C_3   0.675122 0.762118 0.877526 -0.305558
C76   C     C_3   0.721209 0.850983 0.911575 -0.961917
H47   H     H_    0.653628 0.882717 0.933493 0.260134
H48   H     H_    0.785802 0.823110 0.935631 0.270131
H49   H     H_    0.760035 0.915984 0.889716 0.269424
H50   H     H_    0.745823 0.739178 0.854838 0.243684
H51   H     H_    0.612877 0.795993 0.854169 0.249364
C77   C     C_3   0.534342 0.191855 0.126876 -0.290910
C78   C     C_3   0.521728 0.092055 0.095105 -0.975801
H52   H     H_    0.445189 0.090415 0.072964 0.266259
H53   H     H_    0.595489 0.085488 0.071452 0.263723
H54   H     H_    0.514627 0.022937 0.118859 0.275365
H55   H     H_    0.613698 0.190916 0.146918 0.243784
H56   H     H_    0.464086 0.185306 0.152999 0.251661
C79   C     C_3   0.551945 0.785135 0.124954 -0.349562
C80   C     C_3   0.650460 0.842775 0.099232 -0.942765
H57   H     H_    0.718260 0.789679 0.093760 0.272159
H58   H     H_    0.626098 0.872462 0.063664 0.259550
H59   H     H_    0.682610 0.911237 0.121829 0.269070
H60   H     H_    0.481284 0.835415 0.127746 0.214828
H61   H     H_    0.582348 0.774182 0.162176 0.251150
C81   C     C_3   0.499208 0.182008 0.872664 -0.337180
C82   C     C_3   0.566118 0.109891 0.902873 -0.945083
H62   H     H_    0.647398 0.150416 0.913073 0.270118
H63   H     H_    0.520945 0.084587 0.936156 0.256357
H64   H     H_    0.581335 0.038221 0.881146 0.269710
H65   H     H_    0.415854 0.143452 0.864611 0.221147
H66   H     H_    0.545566 0.189201 0.838023 0.250644
C83   C     C_3   0.446560 0.762070 0.024209 -0.412467
C84   C     C_3   0.339527 0.719729 0.999062 -0.827058
H67   H     H_    0.357289 0.667553 0.967795 0.268853
H68   H     H_    0.284388 0.675538 0.025067 0.263385
H69   H     H_    0.295444 0.786176 0.985261 0.245834
H70   H     H_    0.422301 0.822316 0.050860 0.217085
H71   H     H_    0.500608 0.805607 0.997966 0.197473
C85   C     C_3   0.372272 0.220028 0.966978 -0.409758
C86   C     C_3   0.274025 0.276978 0.986424 -0.825310
H72   H     H_    0.297306 0.324605 0.019395 0.268307
H73   H     H_    0.243785 0.328863 0.958316 0.264066
H74   H     H_    0.205429 0.218532 0.996249 0.246443
H75   H     H_    0.338246 0.165031 0.938234 0.216699
H76   H     H_    0.402049 0.169321 0.995257 0.195316

loop_
_geom_bond_atom_site_label_1
_geom_bond_atom_site_label_2
_geom_bond_distance
_ccdc_geom_bond_type
C10   H5    1.083196 S    
C52   C71   1.519706 S    
C61   H22   1.110187 S    
C78   H53   1.110568 S    
C49   C50   1.410144 A    
C66   H28   1.109299 S    
C76   H49   1.110640 S    
C86   H72   1.109234 S    
C45   C61   1.527576 S    
N1    C17   1.426360 S    
C64   H24   1.111336 S    
O20   H46   1.013789 S    
C81   H66   1.107854 S    
C8    O11   1.349684 S    
C43   C63   1.531266 S    
O16   H34   1.013972 S    
C31   C33   1.407353 A    
C57   C58   1.428784 A    
C5    N1    1.362858 A    
C70   H35   1.110375 S    
O1    C1    1.306072 A    
N1    C7    1.360855 A    
C36   C85   1.532275 S    
C86   H73   1.111066 S    
C47   H10   1.079062 S    
C38   C81   1.530446 S    
C25   C38   1.421994 A    
C13   C15   1.400867 A    
C29   C35   1.420311 A    
C71   H44   1.102123 S    
C74   O19   1.223457 D    
C62   H18   1.107268 S    
C59   H16   1.096906 S    
C74   O20   1.398489 S    
C82   H62   1.111032 S    
C14   C28   1.396654 A    
O4    Zn1   2.000220 S    
C13   C27   1.400891 A    
C65   C66   1.534126 S    
C4    C28   1.450835 S    
C19   C34   1.406035 A    
C24   C40   1.403162 A    
N4    C55   1.368337 A    
C84   H69   1.110564 S    
C75   C76   1.532225 S    
C71   C72   1.529531 S    
C72   H42   1.110256 S    
O6    Zn2   1.978249 S    
C63   H26   1.101026 S    
C11   H4    1.081709 S    
C12   H3    1.083394 S    
C79   H60   1.108939 S    
C6    N2    1.364720 A    
C83   H71   1.104046 S    
C32   C34   1.405548 A    
C41   C46   1.424150 A    
C51   C69   1.526730 S    
C61   H21   1.109148 S    
C78   H54   1.108363 S    
C64   H25   1.106789 S    
C82   H63   1.107887 S    
O2    C2    1.303888 A    
C48   H9    1.080816 S    
C75   H51   1.110994 S    
C69   H38   1.112869 S    
C5    C21   1.412477 A    
C64   H23   1.109986 S    
C62   H19   1.104890 S    
C36   C38   1.410977 A    
C39   H7    1.076469 S    
C80   H58   1.108054 S    
C2    C41   1.446877 S    
C40   H8    1.076392 S    
C81   H65   1.109969 S    
C15   C73   1.491098 S    
Zn1   N3    2.039538 S    
C32   C39   1.396733 A    
C76   H47   1.110937 S    
C48   C50   1.371745 A    
C86   H74   1.110527 S    
C11   C27   1.397948 A    
C51   C53   1.397269 A    
C56   C67   1.454503 S    
C44   C65   1.534590 S    
C70   H37   1.110414 S    
C44   C49   1.428659 A    
C14   H2    1.080527 S    
C55   C68   1.469858 S    
C16   C74   1.488263 S    
C43   C45   1.409587 A    
C9    C17   1.396771 A    
C59   H17   1.107970 S    
O5    C3    1.302935 A    
O7    Zn2   2.026175 S    
C10   C18   1.400673 A    
C42   C47   1.389933 A    
C77   H56   1.111501 S    
C52   C57   1.438754 A    
C80   H59   1.110644 S    
C69   H39   1.100824 S    
C60   H14   1.110524 S    
C83   C84   1.529069 S    
C7    C25   1.404501 A    
C29   C33   1.409622 A    
O6    C4    1.296862 A    
C8    C26   1.402640 A    
C61   C62   1.533950 S    
C77   C78   1.530782 S    
C66   H29   1.110596 S    
C43   C50   1.419172 A    
C19   C25   1.416213 A    
C23   C75   1.531423 S    
O14   H33   1.010196 S    
C35   C83   1.532893 S    
C85   C86   1.529426 S    
O7    C3    1.305523 A    
C68   O15   1.221414 D    
C79   H61   1.107175 S    
O3    Zn2   2.000220 S    
O8    C4    1.308737 A    
O4    C2    1.297050 A    
C84   H67   1.109394 S    
C55   C57   1.424910 A    
N2    C8    1.361038 A    
C69   C70   1.528173 S    
C82   H64   1.110625 S    
C20   C26   1.414962 A    
C46   C59   1.533015 S    
O1    Zn1   1.965330 S    
C24   C77   1.529621 S    
C65   H32   1.109705 S    
C63   C64   1.532198 S    
C62   H20   1.110931 S    
C12   C28   1.396329 A    
C60   H15   1.110929 S    
C47   C49   1.383839 A    
C80   H57   1.111094 S    
N2    C18   1.430758 S    
C29   C32   1.412705 A    
C5    O9    1.347369 S    
C30   C31   1.415935 A    
C81   C82   1.532432 S    
C20   C33   1.405643 A    
C70   H36   1.107633 S    
C21   C23   1.431738 A    
C6    O10   1.347573 S    
C10   C12   1.384534 A    
C76   H48   1.110834 S    
C1    C42   1.441567 S    
O3    C1    1.292791 A    
O8    Zn1   2.026180 S    
C7    O12   1.349534 S    
C73   O17   1.223643 D    
C83   H70   1.108160 S    
C41   C48   1.382670 A    
C30   C34   1.410692 A    
C67   O13   1.221900 D    
N3    C56   1.370352 A    
C63   H27   1.107613 S    
C67   O14   1.399229 S    
C75   H50   1.111317 S    
C71   H43   1.112813 S    
C77   H55   1.110998 S    
C15   C17   1.416014 A    
C79   C80   1.532650 S    
O18   H45   1.013804 S    
C6    C22   1.413413 A    
C30   C36   1.420594 A    
C16   C18   1.415960 A    
C73   O18   1.398211 S    
N4    C53   1.343849 A    
C37   C79   1.529330 S    
C60   H13   1.105302 S    
C72   H40   1.106844 S    
N3    C54   1.345577 A    
C22   C24   1.429709 A    
C19   C21   1.425082 A    
C52   C54   1.397075 A    
C14   C16   1.400185 A    
C3    C27   1.456022 S    
C66   H30   1.107519 S    
C20   C22   1.422782 A    
C85   H75   1.108288 S    
Zn2   N4    2.039538 S    
O2    Zn2   1.965329 S    
C68   O16   1.397764 S    
C53   H12   1.082065 S    
C42   C45   1.418980 A    
C13   H1    1.084048 S    
O5    Zn1   1.978243 S    
C9    C11   1.383689 A    
C44   C46   1.426845 A    
C26   C37   1.420197 A    
C78   H52   1.110197 S    
C72   H41   1.110558 S    
C56   C58   1.428902 A    
C9    H6    1.083108 S    
C35   C37   1.410332 A    
C59   C60   1.528609 S    
C85   H76   1.102847 S    
C65   H31   1.101709 S    
C51   C58   1.448484 A    
C23   C39   1.402703 A    
C54   H11   1.082725 S    
C84   H68   1.111028 S    
C31   C40   1.398108 A    
