data_mof_unit_pretest_1321.cif
_audit_creation_date              2012-12-11T17:12:46-0500
_audit_creation_method            fapswitch 2.2
_symmetry_space_group_name_H-M    P1
_symmetry_Int_Tables_number       1
_space_group_crystal_system       triclinic
_cell_length_a                    17.289032
_cell_length_b                    6.885523
_cell_length_c                    14.345629
_cell_angle_alpha                 90.000063
_cell_angle_beta                  110.282115
_cell_angle_gamma                 89.99994
_cell_volume                      1601.87543658

loop_
_atom_site_label
_atom_site_type_symbol
_atom_type_description
_atom_site_fract_x
_atom_site_fract_y
_atom_site_fract_z
_atom_type_partial_charge
O1    O     O_R   0.314130 0.635770 0.168990 -0.542938
O2    O     O_R   0.685870 0.364230 0.831010 -0.542939
O3    O     O_R   0.185870 0.135770 0.331010 -0.542937
O4    O     O_R   0.814130 0.864230 0.668990 -0.542936
O5    O     O_R   0.146800 0.302460 0.139760 -0.542877
O6    O     O_R   0.853200 0.697540 0.860240 -0.542880
O7    O     O_R   0.353200 0.802460 0.360240 -0.542877
O8    O     O_R   0.646800 0.197540 0.639760 -0.542883
C1    C     C_R   0.113996 0.475815 0.112820 0.707833
C2    C     C_R   0.886004 0.524185 0.887180 0.707841
C3    C     C_R   0.386004 0.975815 0.387180 0.707834
C4    C     C_R   0.613996 0.024185 0.612819 0.707846
O9    O     O_R   0.311100 0.305780 0.157130 -0.537102
O10   O     O_R   0.688900 0.694220 0.842870 -0.537098
O11   O     O_R   0.188900 0.805780 0.342870 -0.537104
O12   O     O_R   0.811100 0.194220 0.657130 -0.537106
O13   O     O_R   0.351340 0.139640 0.348510 -0.533070
O14   O     O_R   0.648660 0.860360 0.651490 -0.533066
O15   O     O_R   0.148660 0.639640 0.151490 -0.533070
O16   O     O_R   0.851340 0.360360 0.848510 -0.533068
C5    C     C_R   0.334706 0.474648 0.138520 0.696166
C6    C     C_R   0.665295 0.525352 0.861481 0.696171
C7    C     C_R   0.165294 0.974648 0.361480 0.696164
C8    C     C_R   0.834705 0.025351 0.638519 0.696163
C9    C     C_1   0.533567 0.008919 0.533075 -0.189680
C10   C     C_1   0.466434 0.991081 0.466924 -0.189693
C11   C     C_1   0.966433 0.508919 0.966925 -0.189691
C12   C     C_1   0.033566 0.491081 0.033075 -0.189702
O17   O     O_3   0.263010 0.470920 0.312770 -0.363047
O18   O     O_3   0.736990 0.529080 0.687230 -0.363049
O19   O     O_3   0.236990 0.970920 0.187230 -0.363046
O20   O     O_3   0.763010 0.029080 0.812770 -0.363046
V1    V     V_3+5 0.247590 0.194450 0.238360 1.420141
V2    V     V_3+5 0.752410 0.805550 0.761640 1.420138
V3    V     V_3+5 0.252410 0.694450 0.261640 1.420136
V4    V     V_3+5 0.747590 0.305550 0.738360 1.420124
C13   C     C_R   0.115271 0.984708 0.426308 -0.160195
C14   C     C_R   0.884728 0.015291 0.573690 -0.160199
C15   C     C_R   0.384729 0.484706 0.073691 -0.160200
C16   C     C_R   0.615271 0.515292 0.926309 -0.160205
C17   C     C_R   0.895650 0.057989 0.410922 -0.157854
C18   C     C_R   0.104348 0.941994 0.589076 -0.157856
C19   C     C_R   0.604348 0.558008 0.089075 -0.157858
C20   C     C_R   0.395654 0.441964 0.910926 -0.157860
C21   C     C_R   0.847647 0.055756 0.471167 0.326358
C22   C     C_R   0.152351 0.944233 0.528830 0.326369
C23   C     C_R   0.652351 0.555766 0.028830 0.326361
C24   C     C_R   0.347650 0.444208 0.971171 0.326366
C25   C     C_R   0.970291 0.971123 0.614322 0.013562
C26   C     C_R   0.029709 0.028878 0.385677 0.013557
C27   C     C_R   0.529709 0.471121 0.885677 0.013562
C28   C     C_R   0.470290 0.528887 0.114321 0.013558
C29   C     C_R   0.018815 0.977720 0.551378 0.023847
C30   C     C_R   0.981184 0.022274 0.448622 0.023840
C31   C     C_R   0.481185 0.477712 0.948622 0.023854
C32   C     C_R   0.518815 0.522282 0.051377 0.023841
H1    H     H_    0.863331 0.086583 0.333131 0.157709
H2    H     H_    0.136666 0.913387 0.666866 0.157699
H3    H     H_    0.636666 0.586612 0.166865 0.157706
H4    H     H_    0.363337 0.413332 0.833139 0.157694
C33   C     C_3   0.990853 0.079326 0.275302 -0.375333
C34   C     C_3   0.951732 0.899793 0.213596 -0.318353
C35   C     C_3   0.913324 0.949975 0.103423 -0.679917
H5    H     H_    0.864651 0.062067 0.091741 0.228114
H6    H     H_    0.961213 0.004801 0.074675 0.215558
H7    H     H_    0.884952 0.817940 0.060962 0.221529
H8    H     H_    0.999716 0.786598 0.222931 0.194292
H9    H     H_    0.903244 0.838458 0.239435 0.216781
H10   H     H_    0.945416 0.198788 0.263589 0.173182
H11   H     H_    0.036639 0.141010 0.245470 0.182912
C36   C     C_3   0.009148 0.920693 0.724700 -0.375337
C37   C     C_3   0.048277 0.100230 0.786396 -0.318342
C38   C     C_3   0.086643 0.050089 0.896579 -0.679912
H12   H     H_    0.038721 0.995397 0.925309 0.215556
H13   H     H_    0.135285 0.937907 0.908297 0.228106
H14   H     H_    0.115043 0.182114 0.939029 0.221529
H15   H     H_    0.096791 0.161488 0.760581 0.216785
H16   H     H_    0.000306 0.213474 0.777025 0.194293
H17   H     H_    0.963360 0.859034 0.754537 0.182923
H18   H     H_    0.054580 0.801219 0.736417 0.173167
C39   C     C_3   0.509146 0.579344 0.224695 -0.375338
C40   C     C_3   0.548271 0.399817 0.286403 -0.318341
C41   C     C_3   0.586666 0.450002 0.396579 -0.679897
H19   H     H_    0.635327 0.562134 0.408270 0.228105
H20   H     H_    0.538763 0.504782 0.425321 0.215548
H21   H     H_    0.615051 0.317973 0.439039 0.221525
H22   H     H_    0.500293 0.286605 0.277061 0.194289
H23   H     H_    0.596768 0.338505 0.260574 0.216777
H24   H     H_    0.554579 0.698811 0.236405 0.173179
H25   H     H_    0.463358 0.641022 0.254527 0.182918
C42   C     C_3   0.490852 0.420696 0.775298 -0.375341
C43   C     C_3   0.451707 0.600227 0.713607 -0.318343
C44   C     C_3   0.413376 0.550115 0.603418 -0.679983
H26   H     H_    0.461322 0.495552 0.574704 0.215564
H27   H     H_    0.364768 0.437849 0.591675 0.228113
H28   H     H_    0.384942 0.682116 0.560973 0.221539
H29   H     H_    0.403171 0.661412 0.739403 0.216797
H30   H     H_    0.499660 0.713519 0.723004 0.194303
H31   H     H_    0.536641 0.359069 0.745456 0.182935
H32   H     H_    0.445429 0.301204 0.763581 0.173162
O21   O     O_3   0.235669 0.907035 0.574549 -0.646951
H33   H     H_    0.265905 0.937335 0.529155 0.269360
O22   O     O_3   0.764328 0.092949 0.425448 -0.646952
H34   H     H_    0.734094 0.062682 0.470847 0.269366
O23   O     O_3   0.264333 0.406992 0.925455 -0.646948
H35   H     H_    0.234096 0.437317 0.970845 0.269360
O24   O     O_3   0.735669 0.592961 0.074549 -0.646946
H36   H     H_    0.765906 0.562647 0.029156 0.269360

loop_
_geom_bond_atom_site_label_1
_geom_bond_atom_site_label_2
_ccdc_geom_bond_type
C33   H11   S    
C2    C11   S    
C16   C23   A    
C31   C32   A    
C35   H6    S    
O1    C5    A    
C44   H26   S    
C38   H12   S    
O3    C7    A    
C18   H2    S    
C36   H17   S    
C39   C40   S    
C43   H30   S    
C14   C25   A    
C29   C30   A    
O7    C3    A    
C26   C30   A    
C34   H8    S    
O20   V4    S    
C18   C29   A    
O8    V4    S    
O4    C8    A    
C25   C29   A    
O3    V1    S    
O2    V4    S    
C40   H22   S    
O17   V1    S    
C18   C22   A    
C14   C21   A    
C37   H16   S    
C21   O22   S    
C37   H15   S    
C27   C42   S    
C1    O15   A    
C41   H19   S    
C2    O16   A    
O5    V1    S    
O2    C6    A    
C8    C14   S    
O24   H36   S    
O19   V1    S    
C42   H32   S    
C19   H3    S    
C39   H24   S    
O11   C7    A    
C15   C28   A    
C35   H7    S    
O12   C8    A    
O9    V1    S    
C38   H13   S    
C28   C39   S    
O13   V1    S    
O11   V3    S    
C36   H18   S    
C43   H29   S    
C22   O21   S    
O4    V2    S    
O18   V2    S    
O21   H33   S    
C42   C43   S    
C3    C10   S    
C9    C10   T    
C7    C13   S    
O6    V2    S    
O20   V2    S    
O5    C1    A    
C34   C35   S    
C24   O23   S    
C5    C15   S    
O8    C4    A    
C6    C16   S    
O9    C5    A    
O14   V2    S    
C39   H25   S    
C41   H20   S    
C44   H28   S    
C23   O24   S    
C38   H14   S    
O19   V3    S    
O22   H34   S    
O1    V3    S    
C33   H10   S    
C3    O13   A    
O7    V3    S    
C37   C38   S    
O10   V2    S    
C34   H9    S    
C16   C27   A    
O23   H35   S    
O17   V3    S    
O18   V4    S    
C4    C9    S    
O10   C6    A    
C17   H1    S    
C36   C37   S    
O15   V3    S    
O12   V4    S    
C13   C26   A    
C20   C31   A    
C20   H4    S    
C40   H23   S    
C43   C44   S    
C27   C31   A    
C33   C34   S    
C17   C30   A    
O6    C2    A    
C35   H5    S    
O16   V4    S    
C20   C24   A    
C19   C32   A    
C41   H21   S    
C44   H27   S    
C40   C41   S    
C25   C36   S    
C4    O14   A    
C11   C12   T    
C26   C33   S    
C17   C21   A    
C42   H31   S    
C13   C22   A    
C19   C23   A    
C28   C32   A    
C1    C12   S    
C15   C24   A    
