data_mof_unit_pretest_1537.cif
_audit_creation_date              2012-12-10T18:05:47-0500
_audit_creation_method            fapswitch 2.2
_symmetry_space_group_name_H-M    P1
_symmetry_Int_Tables_number       1
_space_group_crystal_system       triclinic
_cell_length_a                    18.821595
_cell_length_b                    18.859354
_cell_length_c                    18.774931
_cell_angle_alpha                 109.397425
_cell_angle_beta                  109.391822
_cell_angle_gamma                 109.526949
_cell_volume                      5136.41863661

loop_
_atom_site_label
_atom_site_type_symbol
_atom_type_description
_atom_site_fract_x
_atom_site_fract_y
_atom_site_fract_z
_atom_type_partial_charge
C1    C     C_R   0.119263 0.000621 0.618945 0.793400
C2    C     C_R   0.933383 0.006261 0.178439 -0.146597
C3    C     C_R   0.236896 0.252719 0.423809 -0.226687
C4    C     C_R   0.314619 0.315227 0.502432 -0.079277
C5    C     C_R   0.326671 0.312186 0.579764 0.019828
C6    C     C_R   0.260138 0.247716 0.576670 -0.225022
C7    C     C_R   0.183559 0.185026 0.497988 -0.068968
C8    C     C_R   0.171554 0.186905 0.420736 -0.012295
C9    C     C_R   0.479497 0.365499 0.688066 -0.123385
C10   C     C_R   0.553711 0.424356 0.770230 0.292421
C11   C     C_R   0.554261 0.492662 0.830581 -0.109517
C12   C     C_R   0.117386 0.118513 0.498597 0.798381
C13   C     C_R   0.480574 0.501879 0.809001 -0.186558
C14   C     C_R   0.406535 0.443496 0.726696 -0.191430
C15   C     C_R   0.406115 0.375811 0.665350 0.070975
C16   C     C_R   0.174933 0.923758 0.685209 0.093701
C17   C     C_R   0.185107 0.001124 0.686904 -0.075980
C18   C     C_R   0.255859 0.080163 0.759934 -0.198378
C19   C     C_R   0.320833 0.080267 0.824013 -0.201949
C20   C     C_R   0.313693 0.001313 0.816761 -0.080854
C21   C     C_R   0.237651 0.923938 0.749826 0.131385
C22   C     C_3   0.227321 0.842798 0.686580 -0.472184
C23   C     C_R   0.881454 0.000209 0.381227 0.811609
C24   C     C_3   0.158572 0.842845 0.615526 -0.444272
C25   C     C_R   0.818572 0.744444 0.500735 0.128722
C26   C     C_R   0.813985 0.815925 0.499691 -0.092591
C27   C     C_R   0.741345 0.822597 0.499200 -0.199221
C28   C     C_R   0.676000 0.757252 0.498302 -0.194265
C29   C     C_R   0.684377 0.686379 0.500915 -0.095822
C30   C     C_R   0.757719 0.683653 0.503163 0.127151
C31   C     C_3   0.802617 0.632029 0.505027 -0.467202
C32   C     C_3   0.872695 0.702076 0.503301 -0.477002
C33   C     C_R   0.759178 0.930027 0.231921 0.038551
C34   C     C_R   0.881302 0.881535 0.500080 0.800867
C35   C     C_R   0.815548 0.001361 0.315177 -0.071885
C36   C     C_R   0.805776 0.075457 0.333195 -0.205108
C37   C     C_R   0.741289 0.075491 0.268008 -0.222657
C38   C     C_R   0.684619 0.000756 0.185093 -0.082019
C39   C     C_R   0.695736 0.929263 0.170263 0.111375
C40   C     C_3   0.663912 0.839133 0.103650 0.318898
C41   C     C_3   0.736004 0.839782 0.174415 -0.436881
C42   C     C_R   0.500641 0.619124 0.618600 0.799119
C43   C     C_R   0.381213 0.382161 0.501453 0.782809
C44   C     C_R   0.500006 0.381444 0.381426 0.787583
C45   C     C_R   0.001356 0.988224 0.197789 -0.125101
C46   C     C_R   0.618560 0.618892 0.500189 0.792389
C47   C     C_R   0.500126 0.118709 0.118859 0.791109
C48   C     C_R   0.381165 0.999923 0.881153 0.786779
C49   C     C_R   0.500186 0.881272 0.881471 0.821188
C50   C     C_R   0.618462 0.999523 0.118021 0.823579
C51   C     C_R   0.527574 0.767234 0.696945 0.085743
C52   C     C_R   0.499891 0.684166 0.684840 -0.062277
C53   C     C_R   0.470962 0.665399 0.739916 -0.187231
C54   C     C_R   0.470349 0.729775 0.804482 -0.152289
C55   C     C_R   0.500486 0.814286 0.815656 -0.050735
C56   C     C_R   0.080299 0.045984 0.276481 0.216662
C57   C     C_R   0.529313 0.829741 0.760331 0.067557
C58   C     C_3   0.565353 0.896810 0.737594 -0.447152
C59   C     C_3   0.564035 0.825491 0.665657 0.065654
C60   C     C_R   0.425534 0.241670 0.246488 0.118009
C61   C     C_R   0.501479 0.316379 0.315562 -0.077627
C62   C     C_R   0.580664 0.325722 0.320033 -0.203610
C63   C     C_R   0.580623 0.261125 0.254858 -0.203150
C64   C     C_R   0.501612 0.185362 0.186404 -0.086558
C65   C     C_R   0.425722 0.178362 0.185951 0.122610
C66   C     C_3   0.329368 0.122320 0.137287 -0.452162
C67   C     C_R   0.090101 0.122949 0.336772 0.071601
C68   C     C_3   0.329297 0.194247 0.207061 -0.470802
C69   C     C_R   0.020981 0.139965 0.316604 -0.199726
C70   C     C_R   0.943252 0.082090 0.237590 -0.129270
Cu1   Cu    Cu3+1 0.000020 0.938200 0.438220 0.951069
Cu2   Cu    Cu3+1 0.999980 0.061800 0.561780 0.962962
Cu3   Cu    Cu3+1 0.438190 0.500040 0.438260 1.003192
Cu4   Cu    Cu3+1 0.561780 0.500000 0.561820 1.002262
Cu5   Cu    Cu3+1 0.561810 0.061820 0.000020 0.978032
Cu6   Cu    Cu3+1 0.438190 0.938280 0.000080 0.960979
H1    H     H_    0.873057 0.961462 0.117358 0.189921
H2    H     H_    0.611487 0.538265 0.894250 0.167070
H3    H     H_    0.480892 0.554419 0.855990 0.153589
H4    H     H_    0.349644 0.451022 0.710700 0.139648
H5    H     H_    0.262926 0.141398 0.765207 0.153546
H6    H     H_    0.376958 0.141493 0.878070 0.159550
H7    H     H_    0.286519 0.853552 0.680830 0.202956
H8    H     H_    0.200412 0.787825 0.697613 0.204506
H9    H     H_    0.177973 0.853876 0.568617 0.219830
H10   H     H_    0.092130 0.787773 0.585496 0.191260
H11   H     H_    0.734512 0.877094 0.498161 0.167627
H12   H     H_    0.992800 0.929136 0.151165 0.149628
H13   H     H_    0.620115 0.762697 0.496825 0.195976
H14   H     H_    0.826063 0.631010 0.567177 0.212143
H15   H     H_    0.764759 0.567643 0.444771 0.191032
H16   H     H_    0.936334 0.741937 0.564764 0.191990
H17   H     H_    0.875806 0.677996 0.442377 0.209487
H18   H     H_    0.848398 0.133396 0.396707 0.165926
H19   H     H_    0.735175 0.133047 0.282481 0.147197
H20   H     H_    0.711631 0.795159 0.197920 0.193185
H21   H     H_    0.788613 0.838198 0.160536 0.208806
H22   H     H_    0.447803 0.601191 0.732093 0.146245
H23   H     H_    0.447424 0.713701 0.845865 0.157397
H24   H     H_    0.518754 0.918197 0.713047 0.224453
H25   H     H_    0.632049 0.950036 0.790294 0.192517
H26   H     H_    0.629636 0.837398 0.676298 0.128552
H27   H     H_    0.641860 0.383002 0.372708 0.148409
H28   H     H_    0.641876 0.269772 0.258614 0.155279
H29   H     H_    0.299331 0.115040 0.071501 0.196486
H30   H     H_    0.027536 0.198413 0.362098 0.142674
H31   H     H_    0.308484 0.060851 0.139364 0.214461
H32   H     H_    0.298683 0.228052 0.181423 0.209398
H33   H     H_    0.309017 0.174491 0.249830 0.202320
H34   H     H_    0.890472 0.095924 0.222249 0.164056
H35   H     H_    0.227408 0.254411 0.364292 0.161559
H36   H     H_    0.268672 0.245435 0.635804 0.146472
H37   H     H_    0.479051 0.312214 0.641835 0.157242
O1    O     O_R   0.090190 0.947810 0.538000 -0.586258
O2    O     O_R   0.552160 0.590170 0.642390 -0.574711
O3    O     O_R   0.357620 0.409850 0.447860 -0.589115
O4    O     O_R   0.461990 0.409820 0.552210 -0.579568
O5    O     O_R   0.447810 0.409860 0.357690 -0.586607
O6    O     O_R   0.552180 0.409830 0.462050 -0.581087
O7    O     O_R   0.537970 0.590210 0.447870 -0.569267
O8    O     O_R   0.642350 0.590180 0.552220 -0.585818
O9    O     O_R   0.552210 0.142430 0.090170 -0.589160
O10   O     O_R   0.447820 0.038100 0.090220 -0.581584
O11   O     O_R   0.462030 0.052220 0.909860 -0.581395
O12   O     O_R   0.090150 0.052180 0.642350 -0.584692
O13   O     O_R   0.357640 0.947890 0.909900 -0.584730
O14   O     O_R   0.552180 0.962000 0.909880 -0.573784
O15   O     O_R   0.447790 0.857670 0.909930 -0.601783
O16   O     O_R   0.642360 0.052210 0.090200 -0.579925
O17   O     O_R   0.537970 0.947880 0.090240 -0.583969
O18   O     O_R   0.090200 0.037990 0.447830 -0.587646
O19   O     O_R   0.090160 0.142360 0.552180 -0.588191
O20   O     O_R   0.909850 0.947820 0.357650 -0.581197
O21   O     O_R   0.909810 0.052190 0.462000 -0.591906
O22   O     O_R   0.909840 0.857640 0.447820 -0.585730
O23   O     O_R   0.909800 0.962010 0.552170 -0.580968
O24   O     O_R   0.447790 0.590200 0.538040 -0.550575
N1    N     N_3   0.576474 0.778509 0.079873 -0.575872
H38   H     H_    0.563762 0.715755 0.043072 0.231653
H39   H     H_    0.532496 0.788342 0.038562 0.241328
Br1   Br    Br    0.678665 0.832067 0.004223 -0.605832
N2    N     N_3   0.148321 0.024447 0.292573 -0.599722
H40   H     H_    0.205614 0.073936 0.350335 0.228414
H41   H     H_    0.127829 0.970173 0.300449 0.226482
Br2   Br    Br    0.480638 0.790197 0.548770 -0.506601
Br3   Br    Br    0.654047 0.411183 0.800070 -0.515033

loop_
_geom_bond_atom_site_label_1
_geom_bond_atom_site_label_2
_ccdc_geom_bond_type
C66   C68   S    
C13   H3    S    
C16   C21   A    
C12   O18   A    
Cu5   O9    S    
Cu6   O13   S    
Cu3   Cu4   S    
C35   C36   A    
C66   H31   S    
C7    C8    A    
C53   C54   A    
Cu4   O6    S    
C26   C27   A    
C33   C39   A    
Cu3   O3    S    
C36   C37   A    
C11   H2    S    
C1    O12   A    
Cu1   O22   S    
C5    C6    A    
Cu2   O23   S    
C41   H20   S    
C18   H5    S    
C37   H19   S    
C18   C19   A    
C49   O15   A    
C41   H21   S    
C50   O17   A    
C13   C14   A    
Cu6   O17   S    
C26   C34   S    
C19   C20   A    
C45   C56   A    
C3    H35   S    
C16   C17   A    
C40   N1    S    
C46   O8    A    
C28   H13   S    
C51   C57   A    
C14   H4    S    
C29   C30   A    
C70   H34   S    
C24   H9    S    
C56   N2    S    
C25   C32   S    
C32   H17   S    
C16   C24   S    
Cu3   O7    S    
C21   C22   S    
C42   O24   A    
C59   H26   S    
C61   C62   A    
Cu2   O19   S    
C2    C45   A    
C7    C12   S    
C49   O14   A    
C23   O20   A    
C51   C52   A    
C45   H12   S    
C58   H24   S    
C3    C8    A    
N1    H38   S    
C47   C64   S    
C63   H28   S    
C47   O9    A    
C44   O6    A    
C58   C59   S    
C49   C55   S    
C48   O13   A    
Cu5   O11   S    
Cu1   O1    S    
C60   C61   A    
C67   C69   A    
C22   H8    S    
Cu5   Cu6   S    
Cu1   O20   S    
C37   C38   A    
C50   O16   A    
C43   O3    A    
Cu2   O21   S    
C31   C32   S    
C14   C15   A    
C34   O23   A    
C30   C31   S    
C31   H14   S    
C62   C63   A    
C17   C18   A    
C46   O7    A    
C58   H25   S    
C27   H11   S    
C20   C48   S    
N1    H39   S    
C43   O4    A    
C59   Br2   S    
C40   C41   S    
C10   Br3   S    
C60   C65   A    
C23   C35   S    
C55   C57   A    
C44   C61   S    
C22   C24   S    
C54   H23   S    
C51   C59   S    
C44   O5    A    
C66   H29   S    
C3    C4    A    
C19   H6    S    
C47   O10   A    
C39   C40   S    
N2    H41   S    
C52   C53   A    
C62   H27   S    
C9    C10   A    
C25   C30   A    
Cu4   O4    S    
C54   C55   A    
C28   C29   A    
Cu3   O5    S    
C12   O19   A    
C23   O21   A    
C38   C39   A    
Cu6   O10   S    
C6    H36   S    
C31   H15   S    
C4    C5    A    
C48   O11   A    
C69   H30   S    
C6    C7    A    
C38   C50   S    
C4    C43   S    
C53   H22   S    
C56   C67   A    
C29   C46   S    
C1    C17   S    
Cu2   O12   S    
C9    H37   S    
C64   C65   A    
C25   C26   A    
C33   C41   S    
Cu1   Cu2   S    
C2    H1    S    
C2    C70   A    
C22   H7    S    
C11   C13   A    
C57   C58   S    
C32   H16   S    
Cu3   O24   S    
C34   O22   A    
Cu6   O15   S    
Cu4   O2    S    
C33   C35   A    
Cu5   O14   S    
C68   H33   S    
C9    C15   A    
C69   C70   A    
C5    C15   S    
C10   C11   A    
Cu1   O18   S    
C63   C64   A    
C36   H18   S    
C42   O2    A    
Cu4   O8    S    
C20   C21   A    
C60   C68   S    
C8    C67   S    
C65   C66   S    
C1    O1    A    
C27   C28   A    
N2    H40   S    
C68   H32   S    
C40   Br1   S    
C24   H10   S    
Cu5   O16   S    
C42   C52   S    
