data_mof_unit_pretest_1085.cif
_audit_creation_date              2013-03-05T15:47:59-0500
_audit_creation_method            fapswitch 2.2
_symmetry_space_group_name_H-M    P1
_symmetry_Int_Tables_number       1
_space_group_crystal_system       triclinic
_cell_length_a                    21.843509
_cell_length_b                    21.819329
_cell_length_c                    23.456153
_cell_angle_alpha                 89.515236
_cell_angle_beta                  90.54457
_cell_angle_gamma                 89.392136
_cell_volume                      11177.9098799

loop_
_atom_site_label
_atom_site_type_symbol
_atom_site_description
_atom_site_fract_x
_atom_site_fract_y
_atom_site_fract_z
_atom_type_partial_charge
O1    O     O_R   0.408370 0.051730 0.500010 -0.600030
O2    O     O_R   0.948270 0.408370 0.500010 -0.613778
O3    O     O_R   0.591630 0.948270 0.500010 -0.595486
O4    O     O_R   0.051730 0.591630 0.500010 -0.592730
O5    O     O_R   0.591630 0.051730 0.499990 -0.584643
O6    O     O_R   0.051730 0.408370 0.499990 -0.589501
O7    O     O_R   0.408370 0.948270 0.499990 -0.589924
O8    O     O_R   0.948270 0.591630 0.499990 -0.592795
O9    O     O_R   0.908370 0.551730 0.000010 -0.588526
O10   O     O_R   0.448270 0.908370 0.000010 -0.601400
O11   O     O_R   0.091630 0.448270 0.000010 -0.596507
O12   O     O_R   0.551730 0.091630 0.000010 -0.627453
O13   O     O_R   0.091630 0.551730 0.999990 -0.593434
O14   O     O_R   0.551730 0.908370 0.999990 -0.572536
O15   O     O_R   0.908370 0.448270 0.999990 -0.615770
O16   O     O_R   0.448270 0.091630 0.999990 -0.592660
C1    C     C_R   0.380039 0.000093 0.499468 0.983953
C2    C     C_R   0.001228 0.380304 0.496464 1.008312
C3    C     C_R   0.619881 0.999686 0.500013 1.000608
C4    C     C_R   0.999849 0.619962 0.500694 0.961624
C5    C     C_R   0.880615 0.499935 0.008820 0.937100
C6    C     C_R   0.500523 0.880018 0.999727 1.002725
C7    C     C_R   0.120020 0.500083 0.999813 1.018212
C8    C     C_R   0.499568 0.120196 0.004039 0.955137
O17   O     O_R   0.499980 0.051730 0.417240 -0.599602
O18   O     O_R   0.948270 0.499980 0.417240 -0.594387
O19   O     O_R   0.500020 0.948270 0.417240 -0.605916
O20   O     O_R   0.051730 0.500020 0.417240 -0.617683
O21   O     O_R   0.500020 0.051730 0.582760 -0.606522
O22   O     O_R   0.051730 0.499980 0.582760 -0.618946
O23   O     O_R   0.499980 0.948270 0.582760 -0.617822
O24   O     O_R   0.948270 0.500020 0.582760 -0.602443
O25   O     O_R   0.999980 0.551730 0.917240 -0.610086
O26   O     O_R   0.448270 0.999980 0.917240 -0.651935
O27   O     O_R   0.000020 0.448270 0.917240 -0.625749
O28   O     O_R   0.551730 0.000020 0.917240 -0.603382
O29   O     O_R   0.000020 0.551730 0.082760 -0.596981
O30   O     O_R   0.551730 0.999980 0.082760 -0.623594
O31   O     O_R   0.999980 0.448270 0.082760 -0.638893
O32   O     O_R   0.448270 0.000020 0.082760 -0.616875
C9    C     C_R   0.499024 0.000127 0.390793 0.952882
C10   C     C_R   0.999691 0.500433 0.390803 0.938339
C11   C     C_R   0.500115 0.999732 0.609215 0.967983
C12   C     C_R   0.000148 0.500846 0.609177 0.989501
C13   C     C_R   0.999564 0.500193 0.890787 0.938682
C14   C     C_R   0.499729 0.000345 0.890807 0.909383
C15   C     C_R   0.999798 0.499740 0.109210 0.972929
C16   C     C_R   0.500200 0.999695 0.109196 1.007507
Zn1   Zn    Zn3+2 0.500000 0.069080 0.500000 1.020957
Zn2   Zn    Zn3+2 0.930920 0.500000 0.500000 1.029971
Zn3   Zn    Zn3+2 0.500000 0.930920 0.500000 1.003634
Zn4   Zn    Zn3+2 0.069080 0.500000 0.500000 0.986129
Zn5   Zn    Zn3+2 0.000000 0.569080 0.000000 1.001798
Zn6   Zn    Zn3+2 0.430920 0.000000 0.000000 0.965698
Zn7   Zn    Zn3+2 0.000000 0.430920 0.000000 0.965609
Zn8   Zn    Zn3+2 0.569080 0.000000 0.000000 0.970561
C17   C     C_1   0.498005 0.000057 0.330501 -0.225647
C18   C     C_1   0.998960 0.500484 0.330514 -0.209907
C19   C     C_1   0.500022 0.999110 0.669501 -0.216327
C20   C     C_1   0.000153 0.500582 0.669463 -0.173294
C21   C     C_1   0.999266 0.500490 0.830501 -0.186795
C22   C     C_1   0.499228 0.000164 0.830529 -0.206870
C23   C     C_1   0.999204 0.499185 0.169481 -0.209915
C24   C     C_1   0.500364 0.000091 0.169482 -0.193296
C25   C     C_1   0.498206 0.999888 0.279623 -0.033379
C26   C     C_1   0.998793 0.500028 0.279649 -0.035390
C27   C     C_1   0.499786 0.999078 0.720367 -0.014838
C28   C     C_1   0.999817 0.500579 0.720321 -0.025655
C29   C     C_1   0.999404 0.500573 0.779634 -0.008091
C30   C     C_1   0.499387 0.999611 0.779675 -0.014258
C31   C     C_1   0.998900 0.499336 0.220353 -0.031695
C32   C     C_1   0.499485 0.000086 0.220329 -0.024027
H1    H     H_    0.313969 0.184365 0.590798 0.163684
H2    H     H_    0.916894 0.306853 0.675463 0.181535
H3    H     H_    0.691265 0.812098 0.592539 0.166471
H4    H     H_    0.193220 0.687097 0.579045 0.172784
H5    H     H_    0.697721 0.181174 0.398705 0.162500
H6    H     H_    0.186685 0.295050 0.399352 0.161613
H7    H     H_    0.310842 0.808835 0.422124 0.170613
H8    H     H_    0.806597 0.691401 0.424514 0.174088
H9    H     H_    0.812844 0.695974 0.095461 0.162478
H10   H     H_    0.315070 0.816811 0.090753 0.173790
H11   H     H_    0.212691 0.330802 0.119027 0.166703
H12   H     H_    0.571931 0.203790 0.194553 0.167692
H13   H     H_    0.185434 0.691266 0.911728 0.165009
H14   H     H_    0.689944 0.790042 0.912789 0.164663
H15   H     H_    0.786214 0.303459 0.952876 0.144441
H16   H     H_    0.385397 0.218459 0.840668 0.166116
C33   C     C_R   0.312031 0.905942 0.438735 0.535459
C34   C     C_R   0.092864 0.309987 0.427152 0.517838
C35   C     C_R   0.686952 0.087735 0.429410 0.512192
C36   C     C_R   0.903376 0.689114 0.442742 0.541649
C37   C     C_R   0.687750 0.908238 0.567537 0.537036
C38   C     C_R   0.965904 0.312126 0.596545 0.525612
C39   C     C_R   0.313387 0.089074 0.566315 0.536989
C40   C     C_R   0.096223 0.686140 0.561113 0.537727
C41   C     C_R   0.799118 0.389052 0.999727 0.573014
C42   C     C_R   0.595693 0.807329 0.937432 0.522708
C43   C     C_R   0.183818 0.593771 0.932247 0.536335
C44   C     C_R   0.428983 0.200767 0.923259 0.530795
C45   C     C_R   0.196165 0.417566 0.073121 0.540804
C46   C     C_R   0.411799 0.815243 0.068356 0.550138
C47   C     C_R   0.816143 0.599517 0.073757 0.530925
C48   C     C_R   0.552375 0.187827 0.105028 0.500519
C49   C     C_R   0.285270 0.848372 0.436420 -0.288954
C50   C     C_R   0.145334 0.274481 0.415195 -0.313742
C51   C     C_R   0.720157 0.140594 0.415854 -0.317172
C52   C     C_R   0.845625 0.716355 0.440542 -0.280657
C53   C     C_R   0.715446 0.850377 0.574513 -0.320454
C54   C     C_R   0.927844 0.284131 0.635920 -0.271956
C55   C     C_R   0.288204 0.147696 0.571783 -0.316908
C56   C     C_R   0.153640 0.713036 0.564313 -0.296349
C57   C     C_R   0.772596 0.350841 0.957922 -0.333458
C58   C     C_R   0.647597 0.770344 0.927328 -0.303119
C59   C     C_R   0.210554 0.651830 0.927742 -0.326588
C60   C     C_R   0.421340 0.230730 0.870110 -0.296395
C61   C     C_R   0.229586 0.364144 0.089006 -0.346308
C62   C     C_R   0.352708 0.790988 0.073112 -0.341775
C63   C     C_R   0.787869 0.657062 0.079657 -0.338664
C64   C     C_R   0.565571 0.224180 0.152772 -0.313567
C65   C     C_R   0.223087 0.843908 0.443863 -0.268557
C66   C     C_R   0.141137 0.211586 0.413883 -0.261473
C67   C     C_R   0.782577 0.135332 0.410226 -0.189847
C68   C     C_R   0.840886 0.778760 0.448093 -0.260667
C69   C     C_R   0.777582 0.844441 0.567827 -0.242533
C70   C     C_R   0.903982 0.227057 0.624657 -0.263199
C71   C     C_R   0.226735 0.156397 0.561231 -0.242142
C72   C     C_R   0.157879 0.775534 0.557761 -0.267420
C73   C     C_R   0.730580 0.375431 0.918758 -0.159297
C74   C     C_R   0.640684 0.707735 0.923792 -0.260343
C75   C     C_R   0.272766 0.657333 0.934876 -0.234220
C76   C     C_R   0.460416 0.277128 0.853887 -0.233670
C77   C     C_R   0.284931 0.350519 0.064175 -0.226533
C78   C     C_R   0.344209 0.729522 0.064363 -0.237659
C79   C     C_R   0.725404 0.662938 0.073104 -0.221981
C80   C     C_R   0.579349 0.285273 0.145890 -0.254771
C81   C     C_R   0.188376 0.897610 0.450070 0.287117
C82   C     C_R   0.084677 0.184945 0.424031 0.277868
C83   C     C_R   0.810286 0.078599 0.421055 0.359764
C84   C     C_R   0.894662 0.812791 0.453329 0.263284
C85   C     C_R   0.811937 0.896521 0.556370 0.275618
C86   C     C_R   0.921239 0.195189 0.575663 0.359660
C87   C     C_R   0.190162 0.105660 0.549523 0.286421
C88   C     C_R   0.104249 0.810435 0.550783 0.282223
C89   C     C_R   0.705961 0.434421 0.926722 0.353686
C90   C     C_R   0.582007 0.684439 0.929403 0.263377
C91   C     C_R   0.308480 0.604689 0.943753 0.290767
C92   C     C_R   0.501782 0.301152 0.893287 0.345737
C93   C     C_R   0.311486 0.391549 0.026039 0.318690
C94   C     C_R   0.394639 0.692175 0.052676 0.301067
C95   C     C_R   0.689999 0.612207 0.059091 0.287072
C96   C     C_R   0.575431 0.312115 0.091983 0.330383
C97   C     C_R   0.217556 0.951434 0.473071 -0.041977
C98   C     C_R   0.041381 0.217177 0.458986 -0.043666
C99   C     C_R   0.781164 0.036780 0.459990 -0.024427
C100  C     C_R   0.949178 0.783015 0.475814 -0.047587
C101  C     C_R   0.782375 0.948837 0.529265 -0.071596
C102  C     C_R   0.964840 0.221152 0.537323 -0.056772
C103  C     C_R   0.218117 0.050637 0.526853 -0.093147
C104  C     C_R   0.050189 0.781731 0.527618 -0.053182
C105  C     C_R   0.723126 0.466929 0.976303 -0.065505
C106  C     C_R   0.539821 0.716609 0.965161 -0.016604
C107  C     C_R   0.280570 0.550709 0.967199 -0.050526
C108  C     C_R   0.502163 0.278660 0.950322 -0.038521
C109  C     C_R   0.282573 0.449276 0.015404 -0.093928
C110  C     C_R   0.448636 0.719277 0.028499 -0.064991
C111  C     C_R   0.719015 0.558599 0.036375 -0.089319
C112  C     C_R   0.542947 0.281466 0.047773 -0.092727
C113  C     C_R   0.281955 0.953159 0.470427 -0.073049
C114  C     C_R   0.045806 0.281795 0.460531 -0.049247
C115  C     C_R   0.716952 0.040831 0.463410 -0.066267
C116  C     C_R   0.951275 0.718709 0.473619 -0.080454
C117  C     C_R   0.717806 0.952162 0.531648 -0.039490
C118  C     C_R   0.978034 0.283358 0.543410 -0.091301
C119  C     C_R   0.282473 0.046198 0.530697 -0.040807
C120  C     C_R   0.048224 0.717196 0.529988 -0.063452
C121  C     C_R   0.778900 0.450992 0.001819 -0.032190
C122  C     C_R   0.545568 0.780614 0.968452 -0.044835
C123  C     C_R   0.215913 0.547867 0.965480 -0.045966
C124  C     C_R   0.476114 0.221333 0.961031 -0.036714
C125  C     C_R   0.220634 0.456207 0.029217 -0.038961
C126  C     C_R   0.454361 0.783491 0.032408 -0.037358
C127  C     C_R   0.784130 0.552978 0.043512 -0.027408
C128  C     C_R   0.532145 0.217414 0.053281 -0.047760
C129  C     C_R   0.186047 0.001471 0.499857 -0.062291
C130  C     C_R   0.998388 0.187325 0.495838 -0.052606
C131  C     C_R   0.813554 0.994317 0.496657 -0.039760
C132  C     C_R   0.999903 0.814015 0.501113 -0.023023
C133  C     C_R   0.688030 0.514061 0.001778 -0.076437
C134  C     C_R   0.493913 0.686331 0.997481 -0.006126
C135  C     C_R   0.313487 0.500530 0.992896 -0.045313
C136  C     C_R   0.522796 0.312828 0.997896 -0.037587
C137  C     C_R   0.313791 0.999932 0.499953 -0.170824
C138  C     C_R   0.006571 0.314284 0.498245 -0.171242
C139  C     C_R   0.685891 0.998412 0.499213 -0.165160
C140  C     C_R   0.999742 0.686267 0.501582 -0.169781
C141  C     C_R   0.814431 0.499502 0.022929 -0.134241
C142  C     C_R   0.501354 0.813776 0.001114 -0.171446
C143  C     C_R   0.186256 0.501276 0.998203 -0.165249
C144  C     C_R   0.499109 0.187188 0.008502 -0.122642
H17   H     H_    0.201489 0.801279 0.432232 0.204772
H18   H     H_    0.177410 0.185899 0.393477 0.196790
H19   H     H_    0.806277 0.170646 0.386688 0.194927
H20   H     H_    0.797893 0.800898 0.436454 0.205651
H21   H     H_    0.799501 0.802506 0.582915 0.207289
H22   H     H_    0.871434 0.207760 0.654156 0.206678
H23   H     H_    0.206347 0.199626 0.573845 0.199511
H24   H     H_    0.200502 0.796895 0.570029 0.208034
H25   H     H_    0.718011 0.348630 0.881925 0.217132
H26   H     H_    0.676361 0.681232 0.903390 0.210572
H27   H     H_    0.293502 0.700182 0.922271 0.203886
H28   H     H_    0.457360 0.295236 0.810826 0.199430
H29   H     H_    0.306318 0.306623 0.073914 0.211864
H30   H     H_    0.301168 0.709830 0.077399 0.205176
H31   H     H_    0.703909 0.705424 0.086265 0.206243
H32   H     H_    0.598918 0.309696 0.181562 0.200381
O33   O     O_R   0.999980 0.091600 0.546760 -0.578127
O34   O     O_R   0.908400 0.999980 0.546760 -0.551984
O35   O     O_R   0.000020 0.908400 0.546760 -0.554028
O36   O     O_R   0.091600 0.000020 0.546760 -0.539733
O37   O     O_R   0.000020 0.091600 0.453240 -0.577626
O38   O     O_R   0.091600 0.999980 0.453240 -0.570333
O39   O     O_R   0.999980 0.908400 0.453240 -0.548071
O40   O     O_R   0.908400 0.000020 0.453240 -0.566909
O41   O     O_R   0.499980 0.591600 0.046760 -0.541844
O42   O     O_R   0.408400 0.499980 0.046760 -0.591527
O43   O     O_R   0.500020 0.408400 0.046760 -0.628933
O44   O     O_R   0.591600 0.500020 0.046760 -0.534516
O45   O     O_R   0.500020 0.591600 0.953240 -0.578546
O46   O     O_R   0.591600 0.499980 0.953240 -0.577483
O47   O     O_R   0.499980 0.408400 0.953240 -0.578717
O48   O     O_R   0.408400 0.500020 0.953240 -0.558344
C145  C     C_R   0.999047 0.120684 0.499107 0.928457
C146  C     C_R   0.879633 0.997322 0.499356 0.923682
C147  C     C_R   0.000101 0.879748 0.500279 0.878136
C148  C     C_R   0.120271 0.001516 0.500064 0.867568
C149  C     C_R   0.495636 0.620212 0.999456 0.878531
C150  C     C_R   0.379557 0.502303 0.998703 0.922405
C151  C     C_R   0.509465 0.379848 0.999671 0.992248
C152  C     C_R   0.620444 0.508269 0.000206 0.905575
Zn9   Zn    Zn3+2 1.000000 0.000000 0.562420 1.237886
Zn10  Zn    Zn3+2 1.000000 0.000000 0.437580 1.277312
Zn11  Zn    Zn3+2 0.500000 0.500000 0.062420 1.181379
Zn12  Zn    Zn3+2 0.500000 0.500000 0.937580 1.255812
O49   O     O_3   0.365623 0.916103 0.409015 -0.614179
C153  C     C_3   0.354801 0.914036 0.349280 0.093153
H33   H     H_    0.380083 0.952315 0.329365 0.149939
H34   H     H_    0.305815 0.921775 0.336844 0.112878
C154  C     C_3   0.377970 0.853664 0.323291 -0.400592
H35   H     H_    0.346467 0.815775 0.333572 0.208346
H36   H     H_    0.377883 0.858377 0.276207 0.178843
C155  C     C_3   0.442740 0.836153 0.342734 -0.705976
H37   H     H_    0.475538 0.871770 0.329275 0.255659
H38   H     H_    0.456400 0.792200 0.322745 0.224675
H39   H     H_    0.444947 0.830083 0.389761 0.277594
O50   O     O_3   0.088552 0.371010 0.409635 -0.636922
C156  C     C_3   0.113551 0.382292 0.354949 0.081304
H40   H     H_    0.078898 0.408072 0.329565 0.163599
H41   H     H_    0.123131 0.340398 0.329665 0.132904
C157  C     C_3   0.170864 0.421764 0.360361 -0.322814
H42   H     H_    0.159212 0.465242 0.382208 0.247906
H43   H     H_    0.206319 0.397509 0.386470 0.206427
C158  C     C_3   0.197259 0.436833 0.302003 -0.962585
H44   H     H_    0.210647 0.394020 0.279827 0.260270
H45   H     H_    0.238506 0.465616 0.307267 0.278105
H46   H     H_    0.163001 0.462599 0.275663 0.262987
O51   O     O_3   0.629174 0.079200 0.405271 -0.623180
C159  C     C_3   0.628178 0.093047 0.345829 0.109233
H47   H     H_    0.602663 0.056630 0.323855 0.170170
H48   H     H_    0.674268 0.090545 0.325744 0.102091
C160  C     C_3   0.598390 0.156404 0.333974 -0.371930
H49   H     H_    0.592106 0.181797 0.374421 0.243854
H50   H     H_    0.629339 0.183783 0.306604 0.179494
C161  C     C_3   0.536347 0.152450 0.303846 -0.868476
H51   H     H_    0.540515 0.126229 0.263683 0.254241
H52   H     H_    0.519311 0.199349 0.293280 0.250988
H53   H     H_    0.502515 0.130281 0.331989 0.289465
O52   O     O_3   0.914125 0.638141 0.409379 -0.612579
C162  C     C_3   0.927986 0.657055 0.352979 0.097115
H54   H     H_    0.963558 0.625548 0.336215 0.148427
H55   H     H_    0.948206 0.703817 0.350289 0.121842
C163  C     C_3   0.871275 0.654231 0.313953 -0.392421
H56   H     H_    0.835437 0.686653 0.328557 0.223449
H57   H     H_    0.883947 0.669159 0.270439 0.186962
C164  C     C_3   0.844962 0.589799 0.311020 -0.764664
H58   H     H_    0.879423 0.557314 0.293853 0.248710
H59   H     H_    0.804290 0.590093 0.282263 0.233447
H60   H     H_    0.830671 0.573997 0.353961 0.288807
O53   O     O_3   0.632639 0.922353 0.594296 -0.640435
C165  C     C_3   0.629502 0.899498 0.651055 0.074193
H61   H     H_    0.612379 0.937286 0.678070 0.161081
H62   H     H_    0.674758 0.886121 0.669979 0.143313
C166  C     C_3   0.584039 0.846370 0.654706 -0.334008
H63   H     H_    0.537692 0.862444 0.641743 0.252080
H64   H     H_    0.597142 0.808929 0.625489 0.213646
C167  C     C_3   0.580428 0.820622 0.715098 -0.934020
H65   H     H_    0.626235 0.804378 0.730040 0.265884
H66   H     H_    0.548481 0.781390 0.715979 0.290748
H67   H     H_    0.562829 0.856478 0.744057 0.256084
O54   O     O_3   0.994995 0.365240 0.612766 -0.666238
C168  C     C_3   0.055913 0.351138 0.630413 0.060824
H68   H     H_    0.083886 0.392572 0.623194 0.182623
H69   H     H_    0.077877 0.314050 0.604973 0.152442
C169  C     C_3   0.058620 0.334767 0.694089 -0.372068
H70   H     H_    0.033959 0.370374 0.718767 0.240475
H71   H     H_    0.036023 0.290081 0.701490 0.232475
C170  C     C_3   0.124635 0.330098 0.715665 -0.902487
H72   H     H_    0.150097 0.294355 0.691820 0.271997
H73   H     H_    0.125094 0.317469 0.761624 0.271125
H74   H     H_    0.147875 0.374818 0.710439 0.259690
O55   O     O_3   0.366764 0.073067 0.595817 -0.641740
C171  C     C_3   0.360941 0.082830 0.655305 0.065220
H75   H     H_    0.373622 0.039332 0.677530 0.165522
H76   H     H_    0.313430 0.094063 0.669349 0.146657
C172  C     C_3   0.405098 0.132884 0.674594 -0.304002
H77   H     H_    0.452782 0.119359 0.664376 0.247595
H78   H     H_    0.394844 0.176513 0.651709 0.212492
C173  C     C_3   0.400789 0.143928 0.738478 -0.993451
H79   H     H_    0.354714 0.162273 0.749098 0.266901
H80   H     H_    0.435692 0.177852 0.751385 0.274803
H81   H     H_    0.409361 0.100674 0.762623 0.269503
O56   O     O_3   0.086653 0.631939 0.590794 -0.611274
C174  C     C_3   0.086997 0.642353 0.650439 0.092888
H82   H     H_    0.048258 0.616904 0.669028 0.143586
H83   H     H_    0.079001 0.691299 0.662176 0.119752
C175  C     C_3   0.146622 0.619058 0.678906 -0.387643
H84   H     H_    0.185050 0.649659 0.668130 0.210593
H85   H     H_    0.141373 0.620720 0.725819 0.178963
C176  C     C_3   0.163231 0.553419 0.662567 -0.732429
H86   H     H_    0.127002 0.521494 0.676346 0.246176
H87   H     H_    0.206689 0.539600 0.684245 0.228556
H88   H     H_    0.169753 0.549820 0.615820 0.280128
O57   O     O_3   0.838431 0.368032 0.043233 -0.616154
C177  C     C_3   0.868537 0.312116 0.031017 0.101613
H89   H     H_    0.889267 0.313516 0.987772 0.129177
H90   H     H_    0.835755 0.273595 0.034518 0.145780
C178  C     C_3   0.919864 0.301546 0.074829 -0.314667
H91   H     H_    0.952873 0.339720 0.072097 0.241892
H92   H     H_    0.900351 0.300857 0.118428 0.237465
C179  C     C_3   0.953908 0.241293 0.064594 -0.968588
H93   H     H_    0.922084 0.202102 0.068169 0.276548
H94   H     H_    0.990946 0.235377 0.097005 0.274700
H95   H     H_    0.974767 0.241491 0.021585 0.260125
O58   O     O_3   0.593392 0.867169 0.916688 -0.628918
C180  C     C_3   0.613564 0.873457 0.859747 0.078245
H96   H     H_    0.576748 0.897715 0.835532 0.164026
H97   H     H_    0.621368 0.829374 0.837172 0.139006
C181  C     C_3   0.671057 0.912952 0.858364 -0.327495
H98   H     H_    0.661593 0.957351 0.879569 0.247362
H99   H     H_    0.708996 0.889583 0.881998 0.209439
C182  C     C_3   0.691245 0.925585 0.797399 -0.941015
H100  H     H_    0.701828 0.881884 0.775479 0.264487
H101  H     H_    0.733054 0.954076 0.797897 0.282444
H102  H     H_    0.654614 0.950840 0.773603 0.260114
O59   O     O_3   0.128106 0.580810 0.905395 -0.635966
C183  C     C_3   0.120007 0.610523 0.851627 0.079479
H103  H     H_    0.101410 0.576407 0.821472 0.158466
H104  H     H_    0.163533 0.625959 0.831969 0.131850
C184  C     C_3   0.073414 0.663607 0.855910 -0.333930
H105  H     H_    0.027936 0.645686 0.867499 0.251106
H106  H     H_    0.087074 0.696071 0.889685 0.211561
C185  C     C_3   0.066510 0.698492 0.799614 -0.956148
H107  H     H_    0.111455 0.716100 0.785448 0.269238
H108  H     H_    0.034673 0.737969 0.805072 0.285782
H109  H     H_    0.047104 0.667992 0.766600 0.253916
O60   O     O_3   0.382671 0.164143 0.944917 -0.604977
C186  C     C_3   0.358798 0.122061 0.904874 0.115574
H110  H     H_    0.356995 0.076605 0.926327 0.194116
H111  H     H_    0.387922 0.115446 0.866613 0.109239
C187  C     C_3   0.292999 0.140107 0.888278 -0.373730
H112  H     H_    0.264705 0.142313 0.927365 0.241440
H113  H     H_    0.291702 0.186095 0.867749 0.230899
C188  C     C_3   0.265077 0.093676 0.847541 -0.930556
H114  H     H_    0.292358 0.090646 0.807954 0.266203
H115  H     H_    0.217657 0.108191 0.835994 0.279797
H116  H     H_    0.263528 0.047700 0.868150 0.265968
O61   O     O_3   0.140913 0.433995 0.098951 -0.651642
C189  C     C_3   0.132560 0.408928 0.154319 0.085696
H117  H     H_    0.108248 0.443687 0.179906 0.160657
H118  H     H_    0.176195 0.400997 0.178222 0.132715
C190  C     C_3   0.092836 0.351188 0.151758 -0.342803
H119  H     H_    0.046223 0.363382 0.136389 0.247136
H120  H     H_    0.111861 0.317447 0.121404 0.217656
C191  C     C_3   0.087304 0.320941 0.210182 -0.950138
H121  H     H_    0.133320 0.308364 0.227420 0.262344
H122  H     H_    0.059707 0.278682 0.206538 0.285598
H123  H     H_    0.063846 0.352658 0.239787 0.260436
O62   O     O_3   0.429581 0.867836 0.097815 -0.642346
C192  C     C_3   0.397858 0.876847 0.149836 0.082283
H124  H     H_    0.430750 0.895067 0.181541 0.150458
H125  H     H_    0.381981 0.833240 0.169582 0.139989
C193  C     C_3   0.345558 0.924199 0.141743 -0.337155
H126  H     H_    0.363734 0.971198 0.146105 0.237074
H127  H     H_    0.325236 0.920762 0.098319 0.228603
C194  C     C_3   0.295050 0.916238 0.185563 -0.957299
H128  H     H_    0.277692 0.868579 0.185371 0.268738
H129  H     H_    0.256428 0.948002 0.175120 0.282714
H130  H     H_    0.312472 0.927595 0.228662 0.255532
O63   O     O_3   0.874177 0.587670 0.096916 -0.630265
C195  C     C_3   0.882318 0.613246 0.151999 0.100486
H131  H     H_    0.905656 0.578453 0.179265 0.177937
H132  H     H_    0.838425 0.622065 0.174598 0.104825
C196  C     C_3   0.920521 0.672277 0.148916 -0.361622
H133  H     H_    0.928549 0.685562 0.103753 0.242462
H134  H     H_    0.894359 0.710326 0.168831 0.182575
C197  C     C_3   0.982457 0.666299 0.179534 -0.858533
H135  H     H_    0.976829 0.650173 0.224132 0.240271
H136  H     H_    0.005014 0.711650 0.180237 0.259323
H137  H     H_    0.012825 0.633792 0.157010 0.286056
O64   O     O_3   0.558468 0.124620 0.109638 -0.658596
C198  C     C_3   0.618913 0.107695 0.128202 0.110933
H138  H     H_    0.618276 0.059818 0.144270 0.171387
H139  H     H_    0.635684 0.133911 0.165442 0.118303
C199  C     C_3   0.665264 0.111481 0.079470 -0.335913
H140  H     H_    0.654401 0.076552 0.046909 0.245533
H141  H     H_    0.663048 0.157568 0.058988 0.222880
C200  C     C_3   0.730453 0.099762 0.101186 -0.955627
H142  H     H_    0.743596 0.135140 0.132677 0.276000
H143  H     H_    0.762708 0.101841 0.064931 0.267219
H144  H     H_    0.734198 0.053673 0.121487 0.270933
N1    N     N_R   0.134384 0.900425 0.415015 0.210754
O65   O     O_R   0.134523 0.937254 0.371036 -0.328412
O66   O     O_R   0.099591 0.852478 0.412392 -0.413564
N2    N     N_R   0.066174 0.140432 0.382857 0.225705
O67   O     O_R   0.016343 0.149956 0.353085 -0.320854
O68   O     O_R   0.104420 0.097946 0.366805 -0.367669
N3    N     N_R   0.853403 0.058798 0.379145 0.217053
O69   O     O_R   0.843659 0.008410 0.351411 -0.315866
O70   O     O_R   0.894617 0.096421 0.360490 -0.332218
N4    N     N_R   0.896703 0.865940 0.417300 0.206093
O71   O     O_R   0.933492 0.864509 0.373960 -0.319786
O72   O     O_R   0.847822 0.900179 0.412691 -0.396026
N5    N     N_R   0.868373 0.899597 0.587582 0.203780
O73   O     O_R   0.870527 0.936792 0.630661 -0.330909
O74   O     O_R   0.903444 0.851055 0.589826 -0.413798
N6    N     N_R   0.887411 0.141705 0.561482 0.194397
O75   O     O_R   0.863984 0.107607 0.601338 -0.371067
O76   O     O_R   0.868027 0.135787 0.509514 -0.474287
N7    N     N_R   0.131685 0.107407 0.576260 0.197413
O77   O     O_R   0.125416 0.074486 0.622350 -0.335603
O78   O     O_R   0.100129 0.158188 0.572725 -0.465551
N8    N     N_R   0.102056 0.864911 0.584318 0.207441
O79   O     O_R   0.066077 0.865223 0.628266 -0.329041
O80   O     O_R   0.150153 0.899518 0.586258 -0.413415
N9    N     N_R   0.677362 0.465956 0.879228 0.236923
O81   O     O_R   0.684844 0.524734 0.873474 -0.357016
O82   O     O_R   0.657067 0.435539 0.835626 -0.291376
N10   N     N_R   0.560084 0.649563 0.881778 0.231697
O83   O     O_R   0.508654 0.665036 0.856885 -0.308074
O84   O     O_R   0.595993 0.610611 0.856608 -0.314545
N11   N     N_R   0.365403 0.603704 0.914194 0.200038
O85   O     O_R   0.370242 0.567334 0.870712 -0.329067
O86   O     O_R   0.397905 0.653253 0.913840 -0.399007
N12   N     N_R   0.548054 0.342169 0.873565 0.223590
O87   O     O_R   0.600388 0.344197 0.900188 -0.401609
O88   O     O_R   0.540509 0.373156 0.826314 -0.336478
N13   N     N_R   0.360611 0.369311 0.991406 0.181375
O89   O     O_R   0.390299 0.320200 0.007674 -0.444701
O90   O     O_R   0.362683 0.385121 0.937844 -0.378051
N14   N     N_R   0.393552 0.632924 0.079098 0.193696
O91   O     O_R   0.427427 0.624687 0.124543 -0.333276
O92   O     O_R   0.343235 0.601785 0.075711 -0.448906
N15   N     N_R   0.628489 0.613486 0.079165 0.189364
O93   O     O_R   0.615968 0.578630 0.122722 -0.323539
O94   O     O_R   0.597598 0.664486 0.073692 -0.434218
N16   N     N_R   0.611421 0.365562 0.080835 0.201878
O95   O     O_R   0.625758 0.402443 0.122088 -0.366621
O96   O     O_R   0.640440 0.370058 0.032864 -0.434438

loop_
_geom_bond_atom_site_label_1
_geom_bond_atom_site_label_2
_geom_bond_distance
_ccdc_geom_bond_type
N3    O69   1.300642 A    
C74   C90   1.390817 A    
C165  C166  1.536771 S    
O25   C13   1.288993 A    
N13   O89   1.299241 A    
C61   C77   1.377603 A    
C10   C18   1.414068 S    
C178  H91   1.109268 S    
O38   Zn10  2.030861 S    
C168  H68   1.109265 S    
O54   C168  1.419639 S    
O38   C148  1.260019 A    
C163  H56   1.108185 S    
C127  C141  1.425427 A    
C14   C22   1.413863 S    
C47   C127  1.428707 A    
C82   N2    1.433947 S    
C196  H134  1.111584 S    
O18   Zn2   1.981415 S    
C42   C58   1.407751 A    
C198  H139  1.109619 S    
C160  H49   1.111621 S    
O41   C149  1.270793 A    
C98   C114  1.415009 A    
C158  H45   1.110235 S    
C161  H51   1.110297 S    
O1    Zn1   2.040951 S    
O34   Zn9   2.030872 S    
C96   N16   1.436865 S    
C199  C200  1.526029 S    
C102  C118  1.398749 A    
C169  C170  1.525778 S    
O3    C3    1.286111 A    
C175  H84   1.107864 S    
C88   C104  1.446082 A    
C73   C89   1.404295 A    
C130  C145  1.455352 S    
C82   C98   1.439337 A    
O49   C153  1.419896 S    
C199  H141  1.111178 S    
C58   C74   1.379094 A    
O5    Zn1   2.033057 S    
C134  C149  1.443109 S    
C86   C102  1.433818 A    
C35   O51   1.393297 S    
C80   C96   1.390522 A    
C6    C142  1.445354 S    
C70   C86   1.400885 A    
C172  H78   1.108655 S    
N15   O93   1.301382 A    
C46   C126  1.437505 A    
C35   C51   1.404758 A    
C179  H93   1.110860 S    
C193  H127  1.110661 S    
C188  H116  1.110850 S    
O33   C145  1.280545 A    
C113  C137  1.422209 A    
C33   C113  1.433001 A    
O57   C177  1.412654 S    
C183  C184  1.538281 S    
O35   Zn9   2.035175 S    
O59   C183  1.421872 S    
C94   N14   1.429484 S    
C175  C176  1.526636 S    
C81   N1    1.431767 S    
C81   C97   1.447967 A    
C71   C87   1.399600 A    
C180  C181  1.531041 S    
C72   C88   1.397983 A    
C84   C100  1.443674 A    
C105  C133  1.415895 A    
C167  H65   1.110550 S    
N14   O92   1.300406 A    
O26   Zn6   1.981415 S    
C154  H36   1.108308 S    
C190  H119  1.105954 S    
C197  H136  1.110270 S    
C116  C140  1.419567 A    
H10   C62   1.079451 S    
C73   H25   1.082225 S    
O27   C13   1.287015 A    
O8    Zn2   2.038851 S    
C106  C134  1.427152 A    
C178  C179  1.525465 S    
N6    O75   1.301836 A    
O31   C15   1.287596 A    
C168  C169  1.533220 S    
O32   C16   1.287497 A    
C34   O50   1.392074 S    
C123  C143  1.432629 A    
C173  H81   1.109847 S    
C5    C141  1.486266 S    
C191  H122  1.110433 S    
H2    C54   1.082965 S    
C91   N11   1.429414 S    
C35   C115  1.440443 A    
O36   Zn9   2.037738 S    
H9    C63   1.080357 S    
C112  C136  1.414550 A    
C67   H19   1.083155 S    
H6    C50   1.080556 S    
C48   O64   1.387340 S    
N10   O83   1.301204 A    
H11   C61   1.078561 S    
C65   H17   1.083199 S    
C164  H59   1.110283 S    
C99   C131  1.435199 A    
C15   C23   1.413878 S    
C177  C178  1.528036 S    
O9    C5    1.304013 A    
C89   C105  1.416868 A    
C36   C116  1.429722 A    
C95   C111  1.433534 A    
O11   C7    1.295193 A    
C181  H98   1.111090 S    
C33   O49   1.387054 S    
C186  C187  1.532023 S    
C162  H55   1.117629 S    
C36   O52   1.384645 S    
N9    O81   1.300628 A    
O16   Zn6   2.038851 S    
H15   C57   1.080528 S    
O46   Zn12  2.030861 S    
O7    Zn3   2.033054 S    
O4    C4    1.285441 A    
C8    C144  1.466288 S    
N16   O95   1.301823 A    
C184  H105  1.106894 S    
C72   H24   1.083177 S    
C38   O54   1.382068 S    
C189  H117  1.105734 S    
C119  C137  1.419213 A    
C155  H37   1.108525 S    
C87   N7    1.428637 S    
N1    O65   1.302307 A    
C2    C138  1.444204 S    
C182  H100  1.110352 S    
C110  C126  1.411680 A    
C179  H95   1.110873 S    
O40   Zn10  2.037730 S    
C187  H112  1.111667 S    
C182  H102  1.110124 S    
O21   Zn1   1.974646 S    
C77   H29   1.082854 S    
C98   C130  1.439541 A    
C22   C30   1.193038 T    
C154  H35   1.107693 S    
O23   C11   1.287525 A    
C12   C20   1.414040 S    
O44   C152  1.278256 A    
N7    O78   1.300308 A    
C185  H107  1.110804 S    
O63   C195  1.422095 S    
C94   C110  1.443711 A    
C67   C83   1.392507 A    
C171  H75   1.110232 S    
O13   C7    1.280546 A    
C156  H40   1.104808 S    
C65   C81   1.398278 A    
C173  H80   1.110051 S    
O2    Zn2   2.030951 S    
C19   C27   1.193168 T    
C36   C52   1.389105 A    
C167  H67   1.108522 S    
C69   C85   1.394051 A    
O62   C192  1.423013 S    
C128  C144  1.437473 A    
C190  C191  1.522398 S    
O28   C14   1.288816 A    
N12   O87   1.298727 A    
O26   C14   1.288927 A    
O29   C15   1.288415 A    
O30   C16   1.290303 A    
C62   C78   1.372774 A    
C11   C19   1.414065 S    
O29   Zn5   1.974646 S    
C169  H71   1.110602 S    
C121  C141  1.409566 A    
C176  H87   1.110282 S    
C92   N12   1.434447 S    
C40   O56   1.386035 S    
C200  H143  1.110441 S    
O19   Zn3   1.974658 S    
N4    O72   1.299740 A    
C111  C133  1.441484 A    
C92   C108  1.421029 A    
O35   C147  1.261381 A    
C93   C109  1.422118 A    
C195  H132  1.115672 S    
C84   N4    1.430475 S    
O45   Zn12  2.035183 S    
C42   O58   1.389765 S    
C177  H89   1.115066 S    
N5    O74   1.300974 A    
C100  C116  1.404760 A    
C181  C182  1.524202 S    
C174  H83   1.117479 S    
O15   Zn7   2.033054 S    
C166  H63   1.106865 S    
C124  C144  1.419355 A    
C60   C76   1.384293 A    
C83   C99   1.442410 A    
C50   C66   1.376926 A    
C183  H104  1.114673 S    
O53   C165  1.420248 S    
C88   N8    1.431503 S    
C159  H47   1.103874 S    
C39   O55   1.390042 S    
O64   C198  1.430130 S    
C132  C147  1.434260 S    
C54   C70   1.381668 A    
C155  H39   1.110416 S    
N2    O67   1.301512 A    
C46   O62   1.401077 S    
O32   Zn6   1.974344 S    
C107  C123  1.414581 A    
C44   C124  1.430177 A    
C45   C125  1.436115 A    
O18   C10   1.288258 A    
C190  H120  1.108886 S    
O22   Zn4   1.981407 S    
C153  H33   1.108544 S    
C154  C155  1.526091 S    
O37   C145  1.253930 A    
C101  C131  1.430028 A    
O23   Zn3   1.980942 S    
C195  H131  1.105702 S    
O7    C1    1.283160 A    
O51   C159  1.424041 S    
C83   N3    1.433964 S    
C25   C32   1.391317 S    
O12   C8    1.297554 A    
O1    C1    1.291298 A    
C171  C172  1.533058 S    
C131  C146  1.446386 S    
C170  H74   1.111080 S    
O6    Zn4   2.038856 S    
O14   C6    1.283936 A    
O47   Zn12  2.029071 S    
C91   C107  1.439438 A    
C75   H27   1.083298 S    
C90   N10   1.438155 S    
C167  H66   1.110330 S    
C184  C185  1.524013 S    
C161  H52   1.110366 S    
C105  C121  1.391768 A    
C106  C122  1.406213 A    
N11   O85   1.301980 A    
O30   Zn8   1.981407 S    
O58   C180  1.416408 S    
C163  C164  1.526308 S    
C33   C49   1.392347 A    
O52   C162  1.418848 S    
C175  H85   1.108315 S    
C48   C64   1.407162 A    
N8    O79   1.302203 A    
C108  C136  1.419804 A    
N8    O80   1.300965 A    
C37   C53   1.401823 A    
C153  C154  1.538923 S    
C125  C143  1.421964 A    
C160  C161  1.526022 S    
C161  H53   1.107862 S    
C44   C60   1.410462 A    
C51   C67   1.374773 A    
C158  H44   1.110886 S    
O10   C6    1.292577 A    
C90   C106  1.433972 A    
C179  H94   1.110660 S    
C166  C167  1.522539 S    
C188  H115  1.110324 S    
C43   C59   1.404150 A    
C194  H130  1.107761 S    
C16   C24   1.414138 S    
C71   H23   1.083468 S    
C165  H61   1.108147 S    
O40   C146  1.257402 A    
O60   C186  1.418669 S    
C178  H92   1.111706 S    
O46   C152  1.279017 A    
O31   Zn7   1.980942 S    
C186  H110  1.109608 S    
C28   C29   1.391366 S    
C172  C173  1.523354 S    
C47   O63   1.395149 S    
C162  H54   1.109062 S    
C180  H97   1.114222 S    
C108  C124  1.401406 A    
C135  C150  1.449278 S    
C100  C132  1.430933 A    
O56   C174  1.419235 S    
C172  H77   1.108534 S    
O21   C11   1.288530 A    
C198  C199  1.536459 S    
N13   O90   1.301346 A    
O22   C12   1.291063 A    
C157  C158  1.525014 S    
C102  C130  1.429282 A    
C96   C112  1.426132 A    
N6    O76   1.294549 A    
O13   Zn5   2.033057 S    
C168  H69   1.116478 S    
C156  C157  1.531960 S    
C47   C63   1.401877 A    
C170  H72   1.111053 S    
H13   C59   1.078503 S    
C196  C197  1.529485 S    
C66   C82   1.390676 A    
C110  C134  1.425379 A    
C114  C138  1.425401 A    
O3    Zn3   2.040945 S    
C157  H42   1.110389 S    
C59   C75   1.374262 A    
C38   C54   1.390361 A    
C63   C79   1.376136 A    
C174  H82   1.107875 S    
C64   C80   1.378174 A    
O33   Zn9   2.029060 S    
N10   O84   1.299710 A    
N7    O77   1.302018 A    
C43   C123  1.436593 A    
C164  H58   1.109255 S    
O28   Zn8   1.974337 S    
N3    O70   1.301106 A    
C41   C121  1.418749 A    
C26   C31   1.391078 S    
H12   C64   1.080007 S    
O43   C151  1.289935 A    
C181  H99   1.109768 S    
C186  H111  1.114488 S    
C41   O57   1.398654 S    
C34   C50   1.408338 A    
C23   C31   1.193375 T    
C115  C139  1.425915 A    
C48   C128  1.433809 A    
C68   H20   1.083092 S    
N16   O96   1.300210 A    
C199  H140  1.109384 S    
O9    Zn5   2.040951 S    
C189  H118  1.112413 S    
O11   Zn7   2.040945 S    
C155  H38   1.110314 S    
H8    C52   1.082499 S    
C40   C120  1.432997 A    
O48   Zn12  2.037730 S    
C163  H57   1.107323 S    
C68   C84   1.401254 A    
C17   C25   1.193506 T    
C193  H126  1.108753 S    
C69   H21   1.083388 S    
C187  H113  1.109272 S    
C194  H128  1.110668 S    
C182  H101  1.110222 S    
C87   C103  1.448588 A    
C39   C119  1.430061 A    
O5    C3    1.286633 A    
O41   Zn11  2.029060 S    
C78   H30   1.083430 S    
C37   O53   1.395619 S    
C45   C61   1.414177 A    
C66   H18   1.083201 S    
C189  C190  1.538588 S    
C9    C17   1.414186 S    
C103  C129  1.435816 A    
O42   Zn11  2.030872 S    
O44   Zn11  2.037738 S    
C185  H108  1.110334 S    
C70   H22   1.082731 S    
C79   C95   1.396752 A    
C13   C21   1.413988 S    
C109  C135  1.413570 A    
C171  H76   1.117180 S    
C52   C68   1.377528 A    
O17   Zn1   1.980937 S    
C56   C72   1.375211 A    
C187  C188  1.526370 S    
C129  C148  1.436812 S    
N14   O91   1.301925 A    
C20   C28   1.193032 T    
C97   C113  1.409540 A    
C198  H138  1.107826 S    
C192  H125  1.114750 S    
C197  H135  1.109202 S    
N12   O88   1.301589 A    
C133  C152  1.483193 S    
C101  C117  1.413167 A    
N11   O86   1.299692 A    
C185  H109  1.109367 S    
C158  H46   1.110919 S    
O14   Zn8   2.038856 S    
O55   C171  1.420006 S    
C3    C139  1.442180 S    
O42   C150  1.286474 A    
C93   N13   1.434935 S    
O2    C2    1.306818 A    
O20   Zn4   1.974337 S    
C176  H86   1.108476 S    
C1    C137  1.447268 S    
C196  H133  1.111939 S    
C76   H28   1.082655 S    
C191  H121  1.110699 S    
C200  H142  1.110952 S    
O17   C9    1.290390 A    
C40   C56   1.391964 A    
O8    C4    1.290899 A    
C57   C73   1.392576 A    
O4    Zn4   2.030954 S    
C164  H60   1.110498 S    
O43   Zn11  2.035175 S    
C177  H90   1.112957 S    
O39   Zn10  2.029071 S    
C78   C94   1.393945 A    
C7    C143  1.448196 S    
H7    C49   1.080244 S    
O47   C151  1.264371 A    
C162  C163  1.535348 S    
N9    O82   1.300802 A    
N4    O71   1.302196 A    
C18   C26   1.193206 T    
C79   H31   1.083271 S    
C112  C128  1.424818 A    
C197  H137  1.106918 S    
C195  C196  1.543695 S    
C117  C139  1.430089 A    
C46   C62   1.405273 A    
C89   N9    1.438563 S    
N2    O68   1.301747 A    
C122  C142  1.432425 A    
O16   C8    1.291086 A    
C103  C119  1.410033 A    
O48   C150  1.244825 A    
C104  C120  1.409850 A    
C193  C194  1.525269 S    
C37   C117  1.438203 A    
H1    C55   1.080110 S    
O37   Zn10  2.035183 S    
O25   Zn5   1.980937 S    
O6    C2    1.269735 A    
C153  H34   1.117139 S    
H3    C53   1.078429 S    
O27   Zn7   1.974658 S    
C76   C92   1.395611 A    
H5    C51   1.080256 S    
C77   C93   1.394801 A    
O34   C146  1.274021 A    
C157  H43   1.109840 S    
C136  C151  1.489006 S    
C95   N15   1.428009 S    
C156  H41   1.112900 S    
H16   C60   1.078101 S    
C44   O60   1.392874 S    
C173  H79   1.110437 S    
C192  C193  1.541474 S    
O19   C9    1.285648 A    
C159  C160  1.543609 S    
H4    C56   1.080672 S    
O50   C156  1.419505 S    
C34   C114  1.438234 A    
O24   C12   1.286746 A    
C49   C65   1.375493 A    
C184  H106  1.108100 S    
C120  C140  1.424868 A    
C75   C91   1.394722 A    
O24   Zn2   1.974344 S    
O61   C189  1.419050 S    
O12   Zn8   2.030954 S    
O39   C147  1.263516 A    
C38   C118  1.426051 A    
C85   N5    1.430265 S    
C85   C101  1.445171 A    
C53   C69   1.372664 A    
C169  H70   1.110629 S    
C55   C71   1.373919 A    
C176  H88   1.110389 S    
C74   H26   1.083030 S    
C42   C122  1.445523 A    
C104  C132  1.432635 A    
C41   C57   1.416176 A    
C191  H123  1.109517 S    
C200  H144  1.110917 S    
C21   C29   1.193149 T    
C160  H50   1.111937 S    
C111  C127  1.434411 A    
C86   N6    1.427810 S    
O36   C148  1.267219 A    
C43   O59   1.397639 S    
C159  H48   1.116613 S    
C107  C135  1.429327 A    
C118  C138  1.405550 A    
H14   C58   1.081037 S    
C174  C175  1.537582 S    
C109  C125  1.401124 A    
C170  H73   1.110366 S    
C166  H64   1.107804 S    
C39   C55   1.394388 A    
C188  H114  1.110153 S    
C194  H129  1.110355 S    
C192  H124  1.108236 S    
C97   C129  1.436778 A    
O20   C10   1.289590 A    
C183  H103  1.108741 S    
C165  H62   1.114808 S    
C24   C32   1.193021 T    
O10   Zn6   2.030951 S    
C99   C115  1.407555 A    
O15   C5    1.293474 A    
N1    O66   1.301134 A    
N5    O73   1.302173 A    
N15   O94   1.300023 A    
C126  C142  1.431654 A    
C27   C30   1.391401 S    
C180  H96   1.107575 S    
O45   C149  1.259453 A    
C4    C140  1.447019 S    
C45   O61   1.400213 S    
C80   H32   1.082759 S    
