data_mof_unit_pretest_1310.cif
_audit_creation_date              2012-10-26T18:44:12-0400
_audit_creation_method            fapswitch 2.2
_symmetry_space_group_name_H-M    P1
_symmetry_Int_Tables_number       1
_space_group_crystal_system       triclinic
_cell_length_a                    19.402671
_cell_length_b                    9.08833
_cell_length_c                    7.771886
_cell_angle_alpha                 90.032782
_cell_angle_beta                  90.01706
_cell_angle_gamma                 89.996616
_cell_volume                      1370.47758953

loop_
_atom_site_label
_atom_site_type_symbol
_atom_type_description
_atom_site_fract_x
_atom_site_fract_y
_atom_site_fract_z
_atom_type_partial_charge
C1    C     C_R   0.500065 0.219976 0.499972 0.550924
C2    C     C_R   0.255159 0.424299 0.364375 0.090988
C3    C     C_R   0.180102 0.554987 0.635060 0.155202
C4    C     C_R   0.817903 0.599190 0.398143 0.148990
C5    C     C_R   0.817205 0.399051 0.609028 0.143173
C6    C     C_R   0.182616 0.415277 0.365398 0.115747
C7    C     C_R   0.145031 0.484219 0.499010 -0.004648
C8    C     C_R   0.853961 0.498885 0.503542 0.001928
C9    C     C_R   0.290469 0.495211 0.500427 -0.010788
C10   C     C_R   0.708696 0.498932 0.500549 -0.024832
C11   C     C_R   0.929861 0.495476 0.498458 0.359288
C12   C     C_R   0.500060 0.780023 0.500030 0.544164
C13   C     C_R   0.069270 0.488052 0.494623 0.330417
C14   C     C_3   0.140360 0.774032 0.789898 -0.251713
C15   C     C_3   0.859771 0.846780 0.355572 -0.274694
C16   C     C_3   0.854976 0.149793 0.670503 -0.269631
C17   C     C_3   0.139508 0.189811 0.235320 -0.288178
C18   C     C_R   0.366882 0.499848 0.500140 0.561127
C19   C     C_R   0.632810 0.499700 0.500075 0.533741
C20   C     C_1   0.500109 0.065370 0.499963 -0.051707
C21   C     C_1   0.500107 0.934629 0.500042 -0.053260
C22   C     C_R   0.252290 0.559784 0.636497 0.071585
C23   C     C_R   0.745564 0.596906 0.393434 0.062563
C24   C     C_R   0.744900 0.401360 0.609804 0.087003
Cu1   Cu    Cu3+1 0.500000 0.500000 0.669080 1.001318
Cu2   Cu    Cu3+1 0.500000 0.500000 0.330920 1.026187
H1    H     H_    0.319046 0.713583 0.729266 0.234769
H2    H     H_    0.154965 0.808159 0.922086 0.156698
H3    H     H_    0.087115 0.812820 0.763490 0.146870
H4    H     H_    0.175896 0.828105 0.697136 0.158660
H5    H     H_    0.838815 0.695497 0.163268 0.272526
H6    H     H_    0.808485 0.901066 0.354116 0.157114
H7    H     H_    0.895531 0.911381 0.273626 0.148256
H8    H     H_    0.880015 0.846860 0.489261 0.161150
H9    H     H_    0.898159 0.340778 0.773069 0.259088
H10   H     H_    0.884467 0.139047 0.548811 0.152125
H11   H     H_    0.802410 0.104729 0.650825 0.173827
H12   H     H_    0.312312 0.557224 0.851384 0.261393
H13   H     H_    0.880827 0.083182 0.771371 0.139415
H14   H     H_    0.104281 0.401262 0.182674 0.270769
H15   H     H_    0.116714 0.147708 0.113827 0.142741
H16   H     H_    0.104777 0.160774 0.343303 0.174602
H17   H     H_    0.189469 0.133584 0.255751 0.139503
H18   H     H_    0.684508 0.640313 0.187064 0.260293
H19   H     H_    0.675263 0.759767 0.355056 0.235397
H20   H     H_    0.683583 0.363414 0.817242 0.260958
H21   H     H_    0.673510 0.241316 0.651971 0.226294
H22   H     H_    0.273518 0.406303 0.107525 0.261217
H23   H     H_    0.288624 0.250143 0.222148 0.230832
H24   H     H_    0.098768 0.561518 0.814654 0.256779
N1    N     N_1   0.500000 0.500000 0.076820 -0.079242
N2    N     N_3   0.293448 0.364411 0.222478 -0.584153
N3    N     N_2   0.143269 0.614976 0.777906 -0.474750
N4    N     N_2   0.854841 0.698059 0.289804 -0.477650
N5    N     N_2   0.852120 0.302224 0.724533 -0.472066
N6    N     N_2   0.148264 0.347850 0.223215 -0.508207
N7    N     N_1   0.500000 0.500000 0.923180 -0.083364
N8    N     N_R   0.032315 0.362313 0.479118 -0.249640
N9    N     N_R   0.966882 0.621348 0.513320 -0.217953
N10   N     N_R   0.963828 0.366038 0.480118 -0.248703
N11   N     N_R   0.035376 0.617777 0.511116 -0.235609
N12   N     N_3   0.285322 0.633895 0.777408 -0.598069
N13   N     N_3   0.710625 0.698955 0.282568 -0.633285
N14   N     N_3   0.709244 0.302409 0.723032 -0.596413
O1    O     O_R   0.500000 0.288390 0.642760 -0.496412
O2    O     O_R   0.500000 0.711610 0.357240 -0.498599
O3    O     O_R   0.500000 0.711610 0.642760 -0.496137
O4    O     O_R   0.500000 0.288390 0.357240 -0.488896
O5    O     O_R   0.400140 0.500000 0.642830 -0.519942
O6    O     O_R   0.599860 0.500000 0.357170 -0.508527
O7    O     O_R   0.599860 0.500000 0.642830 -0.509937
O8    O     O_R   0.400140 0.500000 0.357170 -0.458613

loop_
_geom_bond_atom_site_label_1
_geom_bond_atom_site_label_2
_ccdc_geom_bond_type
C5    C8    A    
C1    O1    A    
C17   H17   S    
C14   H2    S    
C6    C7    A    
Cu1   O7    S    
H1    N12   S    
H12   N12   S    
C10   C23   A    
C22   N12   S    
Cu2   O8    S    
C16   H11   S    
C15   H8    S    
C19   O7    A    
Cu1   O3    S    
C7    C13   S    
C10   C19   S    
C4    C8    A    
H23   N2    S    
Cu2   O4    S    
C1    O4    A    
C18   O5    A    
C23   N13   S    
C16   N5    S    
Cu1   O1    S    
C15   H6    S    
C24   N14   S    
H19   N13   S    
Cu2   N1    S    
C16   H10   S    
C3    N3    S    
C17   N6    S    
C2    C6    A    
C5    C24   A    
C2    N2    S    
C9    C18   S    
C14   H4    S    
C8    C11   S    
N1    N7    T    
C15   H7    S    
C3    C7    A    
H5    N4    S    
C18   O8    A    
Cu2   O6    S    
C12   O3    A    
C11   N9    A    
C9    C22   A    
N9    N11   A    
C17   H15   S    
Cu1   O5    S    
C14   H3    S    
N8    N10   A    
C11   N10   A    
H24   N3    S    
C15   N4    S    
Cu1   N7    S    
H22   N2    S    
C14   N3    S    
C13   N11   A    
C20   C21   T    
C10   C24   A    
H18   N13   S    
C6    N6    S    
H21   N14   S    
C4    C23   A    
C17   H16   S    
C1    C20   S    
C13   N8    A    
C16   H13   S    
C3    C22   A    
C4    N4    S    
Cu1   Cu2   S    
C19   O6    A    
C2    C9    A    
C12   O2    A    
C12   C21   S    
C5    N5    S    
H9    N5    S    
H20   N14   S    
H14   N6    S    
Cu2   O2    S    
