data_mof_unit_pretest_536.cif
_audit_creation_date              2012-12-10T17:49:38-0500
_audit_creation_method            fapswitch 2.2
_symmetry_space_group_name_H-M    P1
_symmetry_Int_Tables_number       1
_space_group_crystal_system       triclinic
_cell_length_a                    14.699547
_cell_length_b                    14.723912
_cell_length_c                    15.859811
_cell_angle_alpha                 76.883183
_cell_angle_beta                  103.019145
_cell_angle_gamma                 114.955487
_cell_volume                      2998.14574058

loop_
_atom_site_label
_atom_site_type_symbol
_atom_type_description
_atom_site_fract_x
_atom_site_fract_y
_atom_site_fract_z
_atom_type_partial_charge
C1    C     C_R   0.880167 0.312348 0.513861 0.807869
C2    C     C_3   0.021876 0.410987 0.072220 -0.402499
C3    C     C_3   0.003899 0.504535 0.082534 0.289035
C4    C     C_3   0.091821 0.604307 0.046365 0.659378
C5    C     C_3   0.091166 0.599077 0.948346 -0.402130
C6    C     C_1   0.001936 0.501714 0.175078 -0.064276
C7    C     C_1   0.001771 0.501959 0.825003 -0.092487
C8    C     C_1   0.000573 0.501120 0.749336 -0.200812
C9    C     C_R   0.812164 0.205001 0.528672 -0.063481
C10   C     C_R   0.187594 0.795398 0.481573 -0.052480
C11   C     C_R   0.781955 0.036006 0.607482 -0.214109
C12   C     C_R   0.999990 0.500144 0.659718 0.831171
C13   C     C_R   0.848085 0.135580 0.585827 -0.238002
C14   C     C_R   0.708899 0.173082 0.491419 0.105840
C15   C     C_R   0.639109 0.078693 0.527279 0.075605
C16   C     C_R   0.677659 0.007167 0.579296 0.130985
C17   C     C_R   0.532626 0.052638 0.513028 0.064618
C18   C     C_R   0.466229 0.949649 0.530288 0.062695
C19   C     C_R   0.507815 0.878292 0.576148 -0.220367
C20   C     C_R   0.611590 0.907756 0.602940 -0.214639
C21   C     C_R   0.491165 0.127254 0.489496 -0.221086
C22   C     C_R   0.386982 0.100906 0.471441 -0.236819
C23   C     C_R   0.119813 0.687763 0.486088 0.793992
C24   C     C_R   0.321025 0.999281 0.476032 0.166517
C25   C     C_R   0.360171 0.922571 0.504631 0.087416
C26   C     C_R   0.216138 0.973318 0.453107 -0.199959
C27   C     C_R   0.149696 0.871898 0.456426 -0.195796
C28   C     C_R   0.292139 0.821292 0.504525 -0.252005
C29   C     C_R   0.706382 0.653554 0.343926 -0.292328
C30   C     C_R   0.792941 0.632308 0.373031 0.081189
C31   C     C_R   0.716240 0.512215 0.490107 0.016165
C32   C     C_R   0.630428 0.538406 0.469536 -0.023082
C33   C     C_R   0.623669 0.604283 0.390415 0.085158
C34   C     C_R   0.000048 0.499820 0.340313 0.822191
C35   C     C_R   0.548753 0.496932 0.520664 -0.002227
C36   C     C_R   0.454253 0.507370 0.482274 -0.070760
C37   C     C_R   0.445699 0.558001 0.394533 0.427011
C38   C     C_R   0.532162 0.614185 0.354590 -0.267121
C39   C     C_R   0.556973 0.446109 0.608523 0.176108
C40   C     C_R   0.469456 0.388638 0.647136 -0.176401
C41   C     C_R   0.377856 0.397921 0.610481 0.057819
C42   C     C_R   0.371487 0.464579 0.532157 -0.022150
C43   C     C_R   0.294507 0.346369 0.655628 -0.404319
C44   C     C_R   0.207445 0.368311 0.628144 0.667160
C45   C     C_3   0.018511 0.408779 0.974412 -0.399604
C46   C     C_R   0.283622 0.487733 0.509584 -0.070862
C47   C     C_3   0.901494 0.502373 0.930274 -0.389950
C48   C     C_3   0.898679 0.494702 0.028534 -0.470016
C49   C     C_1   0.000881 0.500425 0.250699 -0.184927
C50   C     C_3   0.003087 0.502974 0.917276 0.258983
Cu1   Cu    Cu3+1 0.081750 0.475690 0.522550 0.966101
Cu2   Cu    Cu3+1 0.918250 0.524310 0.477450 0.932230
H1    H     H_    0.962890 0.339724 0.099870 0.159710
H2    H     H_    0.090466 0.406997 0.964882 0.169234
H3    H     H_    0.096240 0.412787 0.109305 0.204784
H4    H     H_    0.640360 0.852069 0.641674 0.143717
H5    H     H_    0.319533 0.761289 0.519654 0.155210
H6    H     H_    0.068995 0.853480 0.438634 0.154624
H7    H     H_    0.358046 0.160391 0.452838 0.142545
H8    H     H_    0.811846 0.982579 0.649259 0.141186
H9    H     H_    0.927421 0.158186 0.613683 0.192646
H10   H     H_    0.955496 0.338427 0.954372 0.172111
H11   H     H_    0.461474 0.800392 0.597549 0.143818
H12   H     H_    0.538641 0.206742 0.488463 0.164931
H13   H     H_    0.185580 0.031522 0.432334 0.133452
H14   H     H_    0.524796 0.658083 0.290397 0.153782
H15   H     H_    0.278208 0.547134 0.457347 0.205896
H16   H     H_    0.475397 0.344252 0.711377 0.143711
H17   H     H_    0.703086 0.706055 0.284248 0.134015
H18   H     H_    0.856699 0.669682 0.337051 0.122075
H19   H     H_    0.719675 0.450527 0.540407 0.149176
H20   H     H_    0.892410 0.572881 0.893902 0.171798
H21   H     H_    0.298080 0.291009 0.712975 0.145064
H22   H     H_    0.836564 0.437264 0.903559 0.176992
H23   H     H_    0.839984 0.419971 0.050862 0.182984
H24   H     H_    0.873851 0.552284 0.039073 0.174730
H25   H     H_    0.163733 0.597464 0.940515 0.164218
H26   H     H_    0.085168 0.667561 0.904284 0.140838
N1    N     N_R   0.795410 0.560790 0.443550 -0.181801
N2    N     N_R   0.204590 0.439170 0.556520 -0.222948
O1    O     O_R   0.977910 0.338120 0.529720 -0.542714
O2    O     O_R   0.839850 0.379180 0.491640 -0.586322
O3    O     O_R   0.069060 0.479460 0.639610 -0.559059
O4    O     O_R   0.931000 0.520530 0.601530 -0.578215
O5    O     O_R   0.160150 0.620820 0.508360 -0.593718
O6    O     O_R   0.022090 0.661880 0.470280 -0.588761
O7    O     O_R   0.069000 0.479470 0.398470 -0.579537
O8    O     O_R   0.930940 0.520540 0.360390 -0.583064
C51   C     C_3   0.072564 0.699734 0.050881 -0.953574
H27   H     H_    0.130951 0.770594 0.022729 0.220043
H28   H     H_    0.999864 0.698647 0.011144 0.216889
H29   H     H_    0.071551 0.705074 0.119355 0.232566
C52   C     C_3   0.679466 0.228841 0.403594 -0.853115
H30   H     H_    0.609570 0.178592 0.366545 0.233407
H31   H     H_    0.668212 0.296073 0.411780 0.243959
H32   H     H_    0.739906 0.254509 0.362012 0.224392
O9    O     O_3   0.121556 0.315015 0.668770 -0.598197
C53   C     C_3   0.142990 0.316405 0.760387 0.040434
H33   H     H_    0.093406 0.347425 0.777082 0.177265
H34   H     H_    0.222408 0.365850 0.784411 0.114425
C54   C     C_3   0.116662 0.208174 0.808967 -0.362998
H35   H     H_    0.036073 0.161148 0.786889 0.223937
H36   H     H_    0.164988 0.174757 0.793621 0.212168
C55   C     C_3   0.132195 0.205771 0.907786 -0.926340
H37   H     H_    0.212568 0.251417 0.931584 0.254555
H38   H     H_    0.112842 0.126415 0.941142 0.257995
H39   H     H_    0.082353 0.236284 0.924858 0.250791
O10   O     O_3   0.353702 0.551742 0.343985 -0.640360
C56   C     C_3   0.299738 0.453790 0.319278 0.062176
H40   H     H_    0.217882 0.440315 0.305017 0.183019
H41   H     H_    0.306721 0.391972 0.372532 0.132776
C57   C     C_3   0.332119 0.446740 0.236355 -0.360848
H42   H     H_    0.316106 0.502479 0.181530 0.244306
H43   H     H_    0.414795 0.464493 0.247283 0.215108
C58   C     C_3   0.275723 0.340660 0.211067 -0.924584
H44   H     H_    0.295874 0.284575 0.262917 0.254935
H45   H     H_    0.297344 0.338942 0.148908 0.257610
H46   H     H_    0.192469 0.319032 0.201793 0.249935
C59   C     C_3   0.656014 0.462266 0.669459 -0.907556
H47   H     H_    0.676910 0.396378 0.676874 0.228240
H48   H     H_    0.717933 0.534113 0.647714 0.242815
H49   H     H_    0.648347 0.469631 0.735479 0.229495
O11   O     O_3   0.184874 0.601076 0.097513 -0.632033
C60   C     C_3   0.267811 0.694593 0.109589 0.082808
H50   H     H_    0.323513 0.676813 0.163494 0.185406
H51   H     H_    0.248227 0.747776 0.134262 0.151906
C61   C     C_3   0.321315 0.744073 0.028443 -0.401121
H52   H     H_    0.340661 0.688143 0.007403 0.221774
H53   H     H_    0.270951 0.769211 0.973932 0.213364
C62   C     C_3   0.418555 0.836072 0.047712 -0.911823
H54   H     H_    0.401119 0.893547 0.068279 0.256659
H55   H     H_    0.455295 0.870624 0.987810 0.257244
H56   H     H_    0.472343 0.813234 0.100337 0.252497

loop_
_geom_bond_atom_site_label_1
_geom_bond_atom_site_label_2
_ccdc_geom_bond_type
C10   C27   A    
C43   H21   S    
C52   H30   S    
C41   C42   A    
C3    C48   S    
C62   H55   S    
C19   C20   A    
C20   H4    S    
C3    C6    S    
Cu1   O5    S    
C57   H43   S    
O9    C53   S    
O11   C60   S    
C28   H5    S    
C25   C28   A    
C26   C27   A    
C54   H35   S    
C36   C37   A    
C37   C38   A    
C24   C26   A    
C2    H3    S    
C56   H41   S    
C11   H8    S    
C1    O1    A    
C15   C16   A    
C29   C33   A    
C45   H10   S    
O10   C56   S    
C12   O4    A    
C18   C19   A    
C42   C46   A    
Cu2   O4    S    
C9    C13   A    
Cu1   N2    S    
C55   H37   S    
C21   H12   S    
C36   C42   A    
C38   H14   S    
C19   H11   S    
C58   H45   S    
C23   O6    A    
C51   H28   S    
Cu2   N1    S    
Cu1   O1    S    
C14   C52   S    
C16   C20   A    
C31   H19   S    
C54   H36   S    
C21   C22   A    
C41   C43   A    
C48   H23   S    
C18   C25   A    
C55   H38   S    
C57   H42   S    
C30   H18   S    
C47   C50   S    
C29   H17   S    
C59   H48   S    
C2    C45   S    
Cu1   Cu2   S    
C32   C35   A    
Cu2   O8    S    
C1    C9    S    
C24   C25   A    
C7    C50   S    
C37   O10   S    
C56   C57   S    
Cu1   O7    S    
C22   H7    S    
C9    C14   A    
C1    O2    A    
C27   H6    S    
C17   C21   A    
C4    O11   S    
C35   C36   A    
C35   C39   A    
C43   C44   A    
C61   H53   S    
C29   C30   A    
C44   O9    S    
C47   C48   S    
C44   N2    A    
C8    C12   S    
C58   H46   S    
C17   C18   A    
C34   O8    A    
C51   H29   S    
Cu2   O2    S    
C60   C61   S    
C30   N1    A    
C40   C41   A    
C45   H2    S    
C52   H32   S    
C53   H34   S    
C40   H16   S    
C22   C24   A    
C5    C50   S    
C62   H56   S    
C5    H25   S    
C3    C4    S    
Cu1   O3    S    
C39   C40   A    
C60   H51   S    
C4    C51   S    
C59   H49   S    
C10   C28   A    
C15   C17   A    
C34   C49   S    
C26   H13   S    
C31   C32   A    
C47   H22   S    
C4    C5    S    
C2    H1    S    
C59   H47   S    
C31   N1    A    
C10   C23   S    
C54   C55   S    
C53   C54   S    
C33   C38   A    
C32   C33   A    
Cu2   O6    S    
C62   H54   S    
C51   H27   S    
C61   C62   S    
C46   H15   S    
C56   H40   S    
C46   N2    A    
C11   C13   A    
C58   H44   S    
C45   C50   S    
C39   C59   S    
C2    C3    S    
C34   O7    A    
C57   C58   S    
C6    C49   T    
C47   H20   S    
C11   C16   A    
C7    C8    T    
C48   H24   S    
C13   H9    S    
C12   O3    A    
C52   H31   S    
C53   H33   S    
C23   O5    A    
C14   C15   A    
C5    H26   S    
C55   H39   S    
C61   H52   S    
C60   H50   S    
