data_mof_unit_pretest_1393.cif
_audit_creation_date              2012-12-10T18:57:10-0500
_audit_creation_method            fapswitch 2.2
_symmetry_space_group_name_H-M    P1
_symmetry_Int_Tables_number       1
_space_group_crystal_system       triclinic
_cell_length_a                    10.621116
_cell_length_b                    9.864293
_cell_length_c                    10.652217
_cell_angle_alpha                 91.502033
_cell_angle_beta                  90.636719
_cell_angle_gamma                 89.937745
_cell_volume                      1115.57793284

loop_
_atom_site_label
_atom_site_type_symbol
_atom_type_description
_atom_site_fract_x
_atom_site_fract_y
_atom_site_fract_z
_atom_type_partial_charge
C1    C     C_R   0.260542 0.500396 0.500206 0.901698
C2    C     C_R   0.466220 0.623416 0.938690 0.156949
C3    C     C_R   0.478523 0.493469 0.125216 -0.161230
C4    C     C_R   0.450457 0.504462 0.867759 -0.140502
C5    C     C_R   0.436326 0.375448 0.056670 -0.086892
C6    C     C_R   0.411361 0.385140 0.927336 -0.107303
C7    C     C_3   0.555720 0.740629 0.929433 -0.289728
C8    C     C_3   0.571911 0.733397 0.071802 -0.265599
C9    C     C_R   0.064249 0.469687 0.388948 0.152418
C10   C     C_R   0.933860 0.460768 0.390570 0.168478
C11   C     C_R   0.871875 0.497331 0.501941 -0.179885
C12   C     C_R   0.739355 0.499458 0.498845 0.922319
C13   C     C_R   0.127945 0.502812 0.501508 -0.157312
C14   C     C_R   0.934848 0.537367 0.613703 -0.078083
C15   C     C_R   0.066308 0.536344 0.614595 -0.086359
C16   C     C_2   0.423205 0.240849 0.113449 0.357408
C17   C     C_2   0.351154 0.269345 0.856168 0.456599
C18   C     C_2   0.492903 0.869812 0.889558 0.449078
C19   C     C_2   0.702743 0.692344 0.111175 0.478951
C20   C     C_3   0.159647 0.568480 0.208018 -0.739433
C21   C     C_3   0.836235 0.285386 0.257933 -0.707143
C22   C     C_2   0.861347 0.582106 0.726063 0.483402
C23   C     C_R   0.596679 0.072943 0.555449 0.228728
C24   C     C_2   0.140548 0.565753 0.731952 0.570422
C25   C     C_3   0.699530 0.144371 0.748753 -0.733012
C26   C     C_3   0.182986 0.069312 0.357112 -0.811355
C27   C     C_R   0.401133 0.069862 0.446896 0.292132
C28   C     C_R   0.596658 0.929041 0.554096 -0.090050
C29   C     C_R   0.402952 0.925376 0.446839 -0.075727
C30   C     C_R   0.498272 0.497638 0.258875 0.926442
C31   C     C_R   0.486437 0.501457 0.738790 0.863692
C32   C     C_R   0.480656 0.617226 0.065326 -0.025750
H1    H     H_    0.641768 0.715881 0.874836 0.152936
H2    H     H_    0.071202 0.621815 0.182486 0.260744
H3    H     H_    0.210171 0.541458 0.120264 0.260836
H4    H     H_    0.220086 0.637971 0.265858 0.244752
H5    H     H_    0.894955 0.473460 0.199322 0.240676
H6    H     H_    0.922498 0.229762 0.229446 0.212309
H7    H     H_    0.765012 0.273597 0.181401 0.272706
H8    H     H_    0.798331 0.239378 0.343547 0.267492
H9    H     H_    0.772811 0.533116 0.746781 0.008150
H10   H     H_    0.229269 0.619512 0.728032 0.071098
H11   H     H_    0.784407 0.116394 0.576618 0.220065
H12   H     H_    0.533833 0.822093 0.126101 0.201272
H13   H     H_    0.606834 0.176701 0.786208 0.243400
H14   H     H_    0.772218 0.216362 0.785421 0.243342
H15   H     H_    0.722340 0.041387 0.782319 0.220910
H16   H     H_    0.321555 0.217125 0.334736 0.264406
H17   H     H_    0.199652 0.002489 0.273360 0.234041
H18   H     H_    0.109099 0.144053 0.333157 0.244563
H19   H     H_    0.148164 0.009392 0.436463 0.264028
H20   H     H_    0.673803 0.875037 0.597358 0.151720
H21   H     H_    0.327829 0.866295 0.403751 0.148025
H22   H     H_    0.332143 0.191011 0.112396 0.053906
H23   H     H_    0.365082 0.165796 0.885080 0.063096
H24   H     H_    0.535492 0.966534 0.915556 0.065712
H25   H     H_    0.749311 0.607533 0.064061 0.065428
H26   H     H_    0.097543 0.369959 0.217628 0.232617
N1    N     N_R   0.500000 0.857200 0.500000 -0.099093
N2    N     N_R   0.500000 0.142810 0.500000 -0.116580
N3    N     N_2   0.132405 0.446624 0.275498 -0.340326
N4    N     N_2   0.863171 0.428061 0.278966 -0.322641
N5    N     N_2   0.698422 0.144740 0.613000 -0.267439
N6    N     N_2   0.297413 0.140544 0.393074 -0.265223
O1    O     O_R   0.316770 0.614620 0.499990 -0.651898
O2    O     O_2   0.281657 0.289138 0.766466 -0.532349
O3    O     O_2   0.395800 0.867535 0.827027 -0.555815
O4    O     O_2   0.757105 0.753974 0.196490 -0.553041
O5    O     O_2   0.895952 0.677775 0.792810 -0.562376
O6    O     O_2   0.105705 0.525720 0.833360 -0.539697
O7    O     O_R   0.683230 0.614620 0.500010 -0.609772
O8    O     O_R   0.316800 0.385290 0.500000 -0.577119
O9    O     O_R   0.683200 0.385290 0.500000 -0.603544
O10   O     O_R   0.500000 0.614690 0.316780 -0.608188
O11   O     O_R   0.500000 0.614690 0.683220 -0.610441
O12   O     O_R   0.500020 0.385360 0.316780 -0.597035
O13   O     O_R   0.499980 0.385360 0.683220 -0.590445
O14   O     O_2   0.515454 0.180815 0.152994 -0.577456
Zn1   Zn    Zn3+2 0.500000 0.653120 0.500000 0.986158
Zn2   Zn    Zn3+2 0.500000 0.346880 0.500000 1.012742

loop_
_geom_bond_atom_site_label_1
_geom_bond_atom_site_label_2
_ccdc_geom_bond_type
O1    Zn1   S    
C27   C29   A    
C24   H10   S    
C2    C7    S    
O7    Zn1   S    
H5    N4    S    
H11   N5    S    
C7    C8    S    
C19   H25   S    
C17   O2    D    
C9    N3    S    
C27   N2    A    
C26   H18   S    
C5    C6    A    
C30   O10   A    
C11   C14   A    
H16   N6    S    
C22   H9    S    
C2    C32   A    
C25   N5    S    
C20   N3    S    
C26   N6    S    
C5    C16   S    
C9    C13   A    
C20   H3    S    
C21   H6    S    
C29   N1    A    
C1    O1    A    
C9    C10   A    
C17   H23   S    
C22   O5    D    
C18   H24   S    
C20   H2    S    
H26   N3    S    
C23   N5    S    
C12   O9    A    
C7    H1    S    
C10   N4    S    
C31   O13   A    
C23   N2    A    
C8    C19   S    
C24   O6    D    
C1    O8    A    
O12   Zn2   S    
C4    C6    A    
C27   N6    S    
C26   H17   S    
N1    Zn1   S    
C18   O3    D    
C8    C32   S    
C3    C30   S    
C2    C4    A    
C30   O12   A    
C31   O11   A    
C21   H7    S    
C7    C18   S    
C19   O4    D    
C23   C28   A    
C21   N4    S    
C15   C24   S    
C12   O7    A    
O10   Zn1   S    
C13   C15   A    
C1    C13   S    
C25   H13   S    
O13   Zn2   S    
C6    C17   S    
C25   H15   S    
N2    Zn2   S    
C8    H12   S    
C3    C5    A    
C11   C12   S    
C14   C22   S    
O8    Zn2   S    
C26   H19   S    
C28   H20   S    
C21   H8    S    
C29   H21   S    
C28   N1    A    
O9    Zn2   S    
C16   O14   D    
C3    C32   A    
C16   H22   S    
C4    C31   S    
C10   C11   A    
C20   H4    S    
C14   C15   A    
O11   Zn1   S    
C25   H14   S    
