data_mof_unit_pretest_443.cif
_audit_creation_date              2012-12-11T14:38:31-0500
_audit_creation_method            fapswitch 2.2
_symmetry_space_group_name_H-M    P1
_symmetry_Int_Tables_number       1
_space_group_crystal_system       triclinic
_cell_length_a                    19.647882
_cell_length_b                    11.018542
_cell_length_c                    19.758865
_cell_angle_alpha                 89.992103
_cell_angle_beta                  95.802871
_cell_angle_gamma                 89.986493
_cell_volume                      4255.69649408

loop_
_atom_site_label
_atom_site_type_symbol
_atom_type_description
_atom_site_fract_x
_atom_site_fract_y
_atom_site_fract_z
_atom_type_partial_charge
C1    C     C_R   0.707947 0.995758 0.366445 0.540036
C2    C     C_R   0.292052 0.995776 0.633544 0.539749
C3    C     C_R   0.207947 0.495757 0.366445 0.541578
C4    C     C_R   0.792052 0.495775 0.633544 0.541430
C5    C     C_3   0.684700 0.452220 0.459597 0.032051
C6    C     C_3   0.315294 0.452175 0.540397 0.032135
C7    C     C_3   0.184700 0.952224 0.459596 0.031837
C8    C     C_3   0.815294 0.952175 0.540396 0.031899
C9    C     C_3   0.827920 0.530978 0.517060 -0.241552
C10   C     C_3   0.172066 0.531005 0.482904 -0.241519
C11   C     C_3   0.327921 0.030979 0.517060 -0.241504
C12   C     C_3   0.672066 0.031006 0.482904 -0.241434
C13   C     C_3   0.790396 0.327231 0.550587 -0.237837
C14   C     C_3   0.209624 0.327224 0.449431 -0.237922
C15   C     C_3   0.290396 0.827232 0.550587 -0.237719
C16   C     C_3   0.709623 0.827225 0.449431 -0.237786
C17   C     C_3   0.777467 0.462814 0.560732 0.026047
C18   C     C_3   0.222531 0.462799 0.439258 0.026084
C19   C     C_3   0.277467 0.962815 0.560732 0.026583
C20   C     C_3   0.722531 0.962799 0.439258 0.026537
C21   C     C_3   0.752231 0.410297 0.431452 0.054938
C22   C     C_3   0.247762 0.410310 0.568546 0.055110
C23   C     C_3   0.252231 0.910298 0.431452 0.054610
C24   C     C_3   0.747762 0.910311 0.568546 0.054711
C25   C     C_3   0.806906 0.511341 0.440177 -0.235012
C26   C     C_3   0.193084 0.511399 0.559794 -0.235087
C27   C     C_3   0.306908 0.011341 0.440176 -0.235084
C28   C     C_3   0.693083 0.011400 0.559794 -0.235227
C29   C     C_3   0.782489 0.300917 0.475093 -0.243760
C30   C     C_3   0.217508 0.300943 0.524931 -0.243686
C31   C     C_3   0.282489 0.800918 0.475093 -0.243876
C32   C     C_3   0.717507 0.800943 0.524931 -0.243812
C33   C     C_3   0.489610 0.323789 0.960698 0.132029
C34   C     C_3   0.507180 0.324935 0.040399 0.125340
C35   C     C_3   0.988490 0.824707 0.960637 0.125138
C36   C     C_3   0.011009 0.824715 0.039420 0.125179
C37   C     C_3   0.424673 0.114095 0.973824 -0.150508
C38   C     C_3   0.571419 0.113589 0.026978 -0.152403
C39   C     C_3   0.923904 0.616025 0.980740 -0.170004
C40   C     C_3   0.075509 0.615924 0.019348 -0.169525
C41   C     C_3   0.548877 0.109158 0.949784 -0.181102
C42   C     C_3   0.446304 0.114771 0.051306 -0.176141
C43   C     C_3   0.044218 0.609368 0.944166 -0.161497
C44   C     C_3   0.955199 0.609511 0.055944 -0.161922
C45   C     C_R   0.535806 0.180282 0.338706 0.529320
C46   C     C_R   0.464187 0.180280 0.661289 0.530497
C47   C     C_R   0.035807 0.680282 0.338706 0.535598
C48   C     C_R   0.964190 0.680279 0.661292 0.535644
C49   C     C_3   0.480355 0.182343 0.935320 -0.015829
C50   C     C_3   0.516303 0.183571 0.065543 -0.022277
C51   C     C_3   0.974780 0.683519 0.936309 -0.021131
C52   C     C_3   0.024653 0.683516 0.063751 -0.020973
C53   C     C_1   0.762255 0.425957 0.904904 0.027826
C54   C     C_1   0.237324 0.426567 0.094809 0.028125
C55   C     C_1   0.262479 0.926692 0.905021 0.011602
C56   C     C_1   0.737095 0.927939 0.094628 0.013775
C57   C     C_1   0.752067 0.410702 0.036278 -0.035116
C58   C     C_1   0.246989 0.411913 0.963261 -0.034791
C59   C     C_1   0.252949 0.912961 0.036644 -0.022048
C60   C     C_1   0.746569 0.914232 0.963001 -0.021274
C61   C     C_1   0.755996 0.416593 0.965001 -0.046156
C62   C     C_1   0.243220 0.417520 0.034604 -0.041500
C63   C     C_1   0.256681 0.918437 0.965283 -0.064928
C64   C     C_1   0.742779 0.919959 0.034339 -0.060045
C65   C     C_1   0.747076 0.397954 0.096436 0.062808
C66   C     C_1   0.252264 0.399081 0.903141 0.063146
C67   C     C_1   0.247580 0.899489 0.096714 0.092244
C68   C     C_1   0.752105 0.900282 0.903004 0.085446
C69   C     C_R   0.739826 0.364901 0.360531 0.513840
C70   C     C_R   0.260167 0.364909 0.639473 0.513288
C71   C     C_R   0.239827 0.864902 0.360531 0.515765
C72   C     C_R   0.760167 0.864910 0.639473 0.515066
C73   C     C_R   0.722682 0.952590 0.163493 0.589134
C74   C     C_R   0.277154 0.952108 0.836308 0.589030
C75   C     C_R   0.222490 0.452997 0.163333 0.580587
C76   C     C_R   0.777434 0.452847 0.836571 0.582540
C77   C     C_R   0.536929 0.181173 0.139244 0.606231
C78   C     C_R   0.460927 0.181170 0.861486 0.627277
C79   C     C_R   0.053183 0.682688 0.135893 0.624976
C80   C     C_R   0.946319 0.682726 0.864112 0.624486
C81   C     C_R   0.737471 0.362294 0.165077 0.603822
C82   C     C_R   0.262308 0.362874 0.834658 0.604459
C83   C     C_R   0.237388 0.861987 0.164963 0.606030
C84   C     C_R   0.762542 0.862162 0.834933 0.602028
C85   C     C_1   0.485566 0.173106 0.594161 -0.034663
C86   C     C_1   0.514416 0.173102 0.405830 -0.034577
C87   C     C_1   0.985569 0.673106 0.594164 -0.036045
C88   C     C_1   0.014420 0.673102 0.405832 -0.035968
C89   C     C_1   0.504211 0.170345 0.464945 -0.076868
C90   C     C_1   0.495764 0.170348 0.535044 -0.076928
C91   C     C_1   0.004216 0.670345 0.464948 -0.076843
C92   C     C_1   0.995769 0.670347 0.535047 -0.076867
C93   C     C_3   0.700102 0.482977 0.535354 -0.176878
C94   C     C_3   0.299892 0.482935 0.464635 -0.176877
C95   C     C_3   0.200103 0.982979 0.535354 -0.176728
C96   C     C_3   0.799891 0.982935 0.464635 -0.176782
Cr1   Cr    Cr6+3 0.765780 0.160710 0.267420 1.040435
Cr2   Cr    Cr6+3 0.234220 0.160710 0.732580 1.039901
Cr3   Cr    Cr6+3 0.265780 0.660710 0.267420 1.033313
Cr4   Cr    Cr6+3 0.734220 0.660710 0.732580 1.035679
Cr5   Cr    Cr6+3 0.612200 0.009560 0.248850 1.060309
Cr6   Cr    Cr6+3 0.387800 0.009560 0.751150 1.062930
Cr7   Cr    Cr6+3 0.112200 0.509560 0.248850 1.058968
Cr8   Cr    Cr6+3 0.887800 0.509560 0.751150 1.058873
Cr9   Cr    Cr6+3 0.616030 0.323720 0.248510 1.065387
Cr10  Cr    Cr6+3 0.383970 0.323720 0.751490 1.069537
Cr11  Cr    Cr6+3 0.116030 0.823720 0.248510 1.063386
Cr12  Cr    Cr6+3 0.883970 0.823720 0.751490 1.062885
H1    H     H_    0.682385 0.574699 0.546530 0.153241
H2    H     H_    0.317588 0.574655 0.453445 0.153281
H3    H     H_    0.182385 0.074700 0.546530 0.153221
H4    H     H_    0.817588 0.074654 0.453445 0.153242
H5    H     H_    0.834199 0.277342 0.460374 0.148334
H6    H     H_    0.165789 0.277437 0.539641 0.148329
H7    H     H_    0.334199 0.777342 0.460374 0.148249
H8    H     H_    0.665789 0.777437 0.539641 0.148265
H9    H     H_    0.879889 0.491366 0.529154 0.130064
H10   H     H_    0.120104 0.491405 0.470824 0.130073
H11   H     H_    0.379890 0.991366 0.529154 0.130085
H12   H     H_    0.620104 0.991407 0.470824 0.130159
H13   H     H_    0.852835 0.485009 0.414879 0.127491
H14   H     H_    0.147158 0.485124 0.585105 0.127414
H15   H     H_    0.352837 0.985008 0.414879 0.127387
H16   H     H_    0.647158 0.985125 0.585105 0.127204
H17   H     H_    0.407520 0.163077 0.078131 0.134115
H18   H     H_    0.587816 0.149769 0.920032 0.133382
H19   H     H_    0.920382 0.649069 0.090610 0.147566
H20   H     H_    0.079043 0.648817 0.909473 0.147773
H21   H     H_    0.575022 0.019401 0.047294 0.143802
H22   H     H_    0.421403 0.018909 0.955272 0.138610
H23   H     H_    0.082853 0.522383 0.039875 0.142224
H24   H     H_    0.916563 0.522469 0.960263 0.142307
H25   H     H_    0.668065 0.422861 0.564591 0.100356
H26   H     H_    0.331943 0.422811 0.435410 0.099975
H27   H     H_    0.168066 0.922862 0.564590 0.100374
H28   H     H_    0.831942 0.922810 0.435410 0.100413
H29   H     H_    0.648423 0.373938 0.454687 0.138170
H30   H     H_    0.351573 0.373864 0.545321 0.138048
H31   H     H_    0.148423 0.873942 0.454686 0.137969
H32   H     H_    0.851572 0.873864 0.545321 0.138004
H33   H     H_    0.336895 0.127386 0.529572 0.087015
H34   H     H_    0.663081 0.127411 0.470352 0.087149
H35   H     H_    0.836894 0.627386 0.529572 0.087044
H36   H     H_    0.163081 0.627409 0.470353 0.087045
H37   H     H_    0.287493 0.095763 0.415498 0.118958
H38   H     H_    0.712500 0.095822 0.584436 0.118961
H39   H     H_    0.787490 0.595762 0.415499 0.118887
H40   H     H_    0.212501 0.595822 0.584436 0.118827
H41   H     H_    0.843003 0.300491 0.571235 0.168274
H42   H     H_    0.157027 0.300491 0.428774 0.168329
H43   H     H_    0.343003 0.800491 0.571235 0.168207
H44   H     H_    0.657026 0.800492 0.428774 0.168263
H45   H     H_    0.753990 0.273484 0.577438 0.129073
H46   H     H_    0.246055 0.273459 0.422615 0.128996
H47   H     H_    0.253989 0.773485 0.577437 0.128976
H48   H     H_    0.746053 0.773459 0.422615 0.129032
H49   H     H_    0.749892 0.222545 0.465261 0.120842
H50   H     H_    0.250094 0.222536 0.534805 0.120865
H51   H     H_    0.249892 0.722547 0.465261 0.120941
H52   H     H_    0.750093 0.722537 0.534804 0.120938
O1    O     O_R   0.783100 0.287550 0.345460 -0.544520
O2    O     O_R   0.216900 0.287550 0.654540 -0.544656
O3    O     O_R   0.283100 0.787550 0.345460 -0.543492
O4    O     O_R   0.716900 0.787550 0.654540 -0.543779
O5    O     O_R   0.554710 0.081900 0.170950 -0.466758
O6    O     O_R   0.445290 0.081900 0.829050 -0.467712
O7    O     O_R   0.054710 0.581900 0.170950 -0.475156
O8    O     O_R   0.945290 0.581900 0.829050 -0.475114
O9    O     O_R   0.545650 0.284910 0.163740 -0.479163
O10   O     O_R   0.454350 0.284910 0.836260 -0.456439
O11   O     O_R   0.045650 0.784910 0.163740 -0.456029
O12   O     O_R   0.954350 0.784910 0.836260 -0.456085
O13   O     O_R   0.677950 0.374280 0.185410 -0.449862
O14   O     O_R   0.322050 0.374280 0.814590 -0.448182
O15   O     O_R   0.177950 0.874280 0.185410 -0.463784
O16   O     O_R   0.822050 0.874280 0.814590 -0.463148
O17   O     O_3   0.664670 0.164660 0.254930 -0.261126
O18   O     O_3   0.335330 0.164660 0.745070 -0.263944
O19   O     O_3   0.164670 0.664660 0.254930 -0.283280
O20   O     O_3   0.835330 0.664660 0.745070 -0.283897
O21   O     O_R   0.760020 0.037400 0.337700 -0.521825
O22   O     O_R   0.239980 0.037400 0.662300 -0.521911
O23   O     O_R   0.260020 0.537400 0.337700 -0.520687
O24   O     O_R   0.739980 0.537400 0.662300 -0.520238
O25   O     O_R   0.666600 0.921990 0.332020 -0.530110
O26   O     O_R   0.333400 0.921990 0.667980 -0.530208
O27   O     O_R   0.166600 0.421990 0.332020 -0.528360
O28   O     O_R   0.833400 0.421990 0.667980 -0.528474
O29   O     O_R   0.557260 0.082670 0.312540 -0.508587
O30   O     O_R   0.442740 0.082670 0.687460 -0.508833
O31   O     O_R   0.057260 0.582670 0.312540 -0.504228
O32   O     O_R   0.942740 0.582670 0.687460 -0.504241
O33   O     O_R   0.548410 0.285740 0.316480 -0.525136
O34   O     O_R   0.451590 0.285740 0.683520 -0.523680
O35   O     O_R   0.048410 0.785740 0.316480 -0.520895
O36   O     O_R   0.951590 0.785740 0.683520 -0.520838
O37   O     O_R   0.680500 0.375040 0.327000 -0.512413
O38   O     O_R   0.319500 0.375040 0.673000 -0.513440
O39   O     O_R   0.180500 0.875040 0.327000 -0.511616
O40   O     O_R   0.819500 0.875040 0.673000 -0.511708
O41   O     O_R   0.780350 0.286720 0.192720 -0.475465
O42   O     O_R   0.219650 0.286720 0.807280 -0.474768
O43   O     O_R   0.280350 0.786720 0.192720 -0.474566
O44   O     O_R   0.719650 0.786720 0.807280 -0.474567
O45   O     O_R   0.757470 0.036630 0.196110 -0.467736
O46   O     O_R   0.242530 0.036630 0.803890 -0.465662
O47   O     O_R   0.257470 0.536630 0.196110 -0.472081
O48   O     O_R   0.742530 0.536630 0.803890 -0.469567
O49   O     O_R   0.663840 0.921160 0.179280 -0.496239
O50   O     O_R   0.336160 0.921160 0.820720 -0.495868
O51   O     O_R   0.163840 0.421160 0.179280 -0.503043
O52   O     O_R   0.836160 0.421160 0.820720 -0.503755
C97   C     C_2   0.422499 0.396156 0.943214 0.339206
H53   H     H_    0.378322 0.375418 0.968768 0.109417
O53   O     O_2   0.417559 0.481208 0.903389 -0.507023
C98   C     C_2   0.573443 0.400015 0.057806 0.336036
H54   H     H_    0.618836 0.379346 0.034278 0.089943
O54   O     O_2   0.576637 0.486293 0.096795 -0.502155
C99   C     C_2   0.922178 0.900518 0.945303 0.312013
H55   H     H_    0.878431 0.882930 0.971933 0.091105
O55   O     O_2   0.916894 0.983715 0.904288 -0.502533
C100  C     C_2   0.077355 0.900450 0.054709 0.312249
H56   H     H_    0.121088 0.882798 0.028068 0.091241
O56   O     O_2   0.082688 0.983630 0.095719 -0.502675
N1    N     N_2   0.545029 0.379964 0.924594 -0.507025
H57   H     H_    0.590441 0.334194 0.924456 0.207015
C101  C     C_3   0.554911 0.510385 0.918186 -0.219237
H58   H     H_    0.610447 0.532052 0.922581 0.125214
H59   H     H_    0.532132 0.561966 0.958204 0.168175
H60   H     H_    0.532550 0.541131 0.867247 0.201121
N2    N     N_2   0.450816 0.380617 0.075681 -0.543611
H61   H     H_    0.433774 0.337232 0.116892 0.253886
C102  C     C_3   0.437988 0.510656 0.078420 -0.241826
H62   H     H_    0.381974 0.526885 0.073732 0.138226
H63   H     H_    0.459618 0.560604 0.037134 0.174820
H64   H     H_    0.459798 0.547652 0.128229 0.191253
N3    N     N_2   0.042954 0.878107 0.922041 -0.492971
H65   H     H_    0.087854 0.831291 0.920818 0.207234
C103  C     C_3   0.054120 0.008254 0.915508 -0.216995
H66   H     H_    0.109844 0.028213 0.919253 0.117640
H67   H     H_    0.032261 0.060732 0.955856 0.167680
H68   H     H_    0.031475 0.039537 0.864773 0.202024
N4    N     N_2   0.956592 0.878210 0.078041 -0.493262
H69   H     H_    0.911656 0.831527 0.079216 0.206919
C104  C     C_3   0.945461 0.008385 0.084512 -0.217083
H70   H     H_    0.889744 0.028443 0.080799 0.117617
H71   H     H_    0.967301 0.060771 0.044116 0.167699
H72   H     H_    0.968149 0.039697 0.135216 0.202033
C105  C     C_2   0.352253 0.157949 0.958973 0.148376
H73   H     H_    0.320562 0.178765 0.999367 0.114594
O57   O     O_2   0.327027 0.166274 0.900574 -0.503594
C106  C     C_2   0.643619 0.159621 0.039868 0.149765
H74   H     H_    0.673203 0.184853 0.998558 0.102528
O58   O     O_2   0.670839 0.166225 0.097662 -0.499099
C107  C     C_2   0.851848 0.664208 0.975548 0.141756
H75   H     H_    0.828545 0.694607 0.020048 0.110240
O59   O     O_2   0.817693 0.666811 0.920733 -0.528360
C108  C     C_2   0.147559 0.664029 0.024515 0.140736
H76   H     H_    0.170936 0.694017 0.979975 0.110465
O60   O     O_2   0.181641 0.666943 0.079362 -0.529821
C109  C     C_2   0.545718 0.978006 0.925199 0.221623
H77   H     H_    0.516319 0.910466 0.949450 0.096011
O61   O     O_2   0.577755 0.946053 0.878420 -0.499804
C110  C     C_2   0.446615 0.986258 0.079355 0.217086
H78   H     H_    0.476716 0.915534 0.058642 0.099915
O62   O     O_2   0.412215 0.960518 0.125444 -0.506371
C111  C     C_2   0.039381 0.477269 0.921173 0.232216
H79   H     H_    0.008060 0.412349 0.944859 0.094843
O63   O     O_2   0.072010 0.441556 0.875618 -0.496241
C112  C     C_2   0.960038 0.477470 0.079050 0.232112
H80   H     H_    0.991302 0.412435 0.055369 0.094846
O64   O     O_2   0.927485 0.441934 0.124701 -0.496045
N5    N     N_2   0.653089 0.556628 0.423320 -0.533033
H81   H     H_    0.668406 0.576075 0.376160 0.272613
C113  C     C_3   0.580049 0.569360 0.426085 -0.325636
H82   H     H_    0.562392 0.656884 0.402650 0.137841
H83   H     H_    0.567492 0.568518 0.479647 0.134949
H84   H     H_    0.552451 0.494336 0.397580 0.174913
N6    N     N_2   0.346901 0.556563 0.576651 -0.533121
H85   H     H_    0.331584 0.576036 0.623807 0.272480
C114  C     C_3   0.419940 0.569244 0.573878 -0.325595
H86   H     H_    0.437594 0.656752 0.597301 0.137932
H87   H     H_    0.432492 0.568398 0.520315 0.134871
H88   H     H_    0.447544 0.494198 0.602390 0.175095
N7    N     N_2   0.153092 0.056632 0.423320 -0.533125
H89   H     H_    0.168409 0.076078 0.376159 0.272887
C115  C     C_3   0.080051 0.069366 0.426083 -0.325352
H90   H     H_    0.062395 0.156889 0.402646 0.138366
H91   H     H_    0.067494 0.068528 0.479646 0.134855
H92   H     H_    0.052453 0.994341 0.397580 0.175118
N8    N     N_2   0.846901 0.056564 0.576650 -0.533115
H93   H     H_    0.831584 0.076036 0.623806 0.272845
C116  C     C_3   0.919940 0.069244 0.573878 -0.325345
H94   H     H_    0.937594 0.156753 0.597301 0.138314
H95   H     H_    0.932491 0.068399 0.520314 0.134860
H96   H     H_    0.947544 0.994198 0.602389 0.175159

loop_
_geom_bond_atom_site_label_1
_geom_bond_atom_site_label_2
_ccdc_geom_bond_type
C8    H32   S    
C58   C62   S    
C39   C51   S    
C107  O59   D    
C44   H19   S    
C67   C83   S    
C8    C24   S    
C6    C22   S    
C83   O15   A    
Cr10  O14   S    
C116  H94   S    
C9    H9    S    
C103  H67   S    
C14   C18   S    
C5    N5    S    
C34   N2    S    
C8    C96   S    
C87   C92   T    
C11   H11   S    
C15   H43   S    
Cr4   O48   S    
Cr7   O31   S    
C9    C25   S    
C96   H28   S    
Cr11  O11   S    
C97   H53   S    
C49   C78   S    
C114  H88   S    
C15   C19   S    
C96   H4    S    
C11   C19   S    
C105  H73   S    
Cr6   O26   S    
Cr9   O9    S    
C12   C20   S    
C12   C28   S    
C10   H10   S    
C1    O21   A    
C13   C29   S    
N8    C116  S    
C69   O1    A    
C116  H96   S    
C33   N1    S    
C74   O46   A    
C109  H77   S    
C81   O13   A    
C37   C105  S    
C35   N3    S    
C72   O40   A    
C39   H24   S    
C77   O5    A    
N4    H69   S    
Cr8   O32   S    
Cr11  O35   S    
C78   O10   A    
N7    C115  S    
C37   H22   S    
Cr12  O20   S    
C3    C18   S    
C2    O22   A    
C79   O11   A    
C37   C42   S    
C25   H39   S    
C51   C80   S    
C29   H5    S    
Cr11  O15   S    
C42   H17   S    
C59   C67   T    
C12   H12   S    
C93   H25   S    
C75   O47   A    
C58   C66   T    
C40   C43   S    
C38   C106  S    
C103  H66   S    
C12   H34   S    
C110  H78   S    
C6    C94   S    
C55   C63   T    
C16   H48   S    
N6    H85   S    
C56   C64   T    
N5    C113  S    
C23   C27   S    
Cr12  O36   S    
C52   C79   S    
C102  H62   S    
Cr3   O23   S    
C36   C52   S    
C27   H37   S    
Cr10  O38   S    
C46   C85   S    
Cr3   O43   S    
C5    C93   S    
C76   O52   A    
N8    H93   S    
Cr9   O37   S    
C20   C96   S    
Cr6   O6    S    
Cr9   O13   S    
C104  H70   S    
C48   O36   A    
C69   O37   A    
Cr10  O10   S    
C9    C17   S    
C2    O26   A    
C53   C61   T    
C46   O30   A    
Cr8   O8    S    
Cr5   O25   S    
C6    N6    S    
C70   O2    A    
C31   H7    S    
C22   C70   S    
Cr2   O2    S    
C44   C52   S    
Cr2   O42   S    
C16   H44   S    
C46   O34   A    
C97   O53   D    
C45   O33   A    
Cr8   O28   S    
C85   C90   T    
C80   O8    A    
C78   O6    A    
C105  O57   D    
C28   H38   S    
C73   O45   A    
Cr3   O47   S    
Cr1   O21   S    
C68   C84   S    
C38   H21   S    
C82   O14   A    
Cr6   O30   S    
C113  H84   S    
Cr7   O27   S    
C98   H54   S    
C38   C41   S    
Cr10  O34   S    
C18   C94   S    
Cr7   O51   S    
C91   C92   S    
C109  O61   D    
C40   C108  S    
C114  H87   S    
Cr6   O50   S    
C81   O41   A    
C54   C62   T    
Cr5   O49   S    
C114  H86   S    
C14   C30   S    
C21   C29   S    
C15   C31   S    
C94   H2    S    
C10   C26   S    
C32   H8    S    
C95   H3    S    
C21   C69   S    
C35   C36   S    
C23   C31   S    
C11   H33   S    
Cr12  O40   S    
C108  O60   D    
C24   C32   S    
Cr3   O19   S    
N7    H89   S    
C7    N7    S    
C23   C71   S    
C66   C82   S    
C37   C49   S    
Cr11  O39   S    
Cr1   O17   S    
C101  H58   S    
C110  O62   D    
C11   C27   S    
C16   C20   S    
C75   O51   A    
C14   H42   S    
C115  H91   S    
N1    H57   S    
C72   O4    A    
C48   C87   S    
Cr4   O4    S    
Cr9   O33   S    
C10   H36   S    
Cr7   O7    S    
C4    O24   A    
C84   O16   A    
C71   O39   A    
C102  H63   S    
C6    H30   S    
C13   H45   S    
C43   C111  S    
Cr4   O44   S    
C71   O3    A    
C42   C50   S    
Cr3   O3    S    
C4    C17   S    
C42   C110  S    
C101  H59   S    
C113  H82   S    
C74   O50   A    
Cr1   O1    S    
N3    C103  S    
C115  H90   S    
C35   C51   S    
Cr5   O5    S    
Cr6   O18   S    
C112  O64   D    
C59   C63   S    
C53   C76   S    
C17   C93   S    
C80   O12   A    
C107  H75   S    
Cr4   O20   S    
C50   C77   S    
C36   C100  S    
C99   H55   S    
C83   O43   A    
C19   C95   S    
C26   H14   S    
C24   C72   S    
C106  O58   D    
Cr2   O18   S    
C30   H6    S    
C44   C112  S    
C47   O35   A    
C30   H50   S    
C77   O9    A    
C21   C25   S    
C100  O56   D    
C1    C20   S    
C27   H15   S    
C56   C73   S    
C22   C30   S    
Cr11  O19   S    
C2    C19   S    
C112  H80   S    
C36   N4    S    
C15   H47   S    
C41   H18   S    
C40   H23   S    
C31   H51   S    
C24   C28   S    
Cr9   O17   S    
C33   C49   S    
C86   C89   T    
C35   C99   S    
C43   H20   S    
C34   C50   S    
C29   H49   S    
C111  H79   S    
C28   H16   S    
C57   C61   S    
C39   C44   S    
C38   C50   S    
C39   C107  S    
Cr1   O41   S    
Cr2   O22   S    
C16   C32   S    
C41   C49   S    
C7    C95   S    
Cr5   O29   S    
C94   H26   S    
C13   C17   S    
C3    O23   A    
C60   C64   S    
C79   O7    A    
C1    O25   A    
C113  H83   S    
Cr12  O12   S    
C45   C86   S    
C89   C90   S    
C13   H41   S    
C5    H29   S    
C116  H95   S    
C40   C52   S    
C47   C88   S    
C33   C97   S    
C7    H31   S    
C82   O42   A    
C111  O63   D    
C43   C51   S    
Cr8   O20   S    
C88   C91   T    
C25   H13   S    
C10   C18   S    
C7    C23   S    
Cr12  O16   S    
C41   C109  S    
N1    C101  S    
C104  H71   S    
C33   C34   S    
C73   O49   A    
C103  H68   S    
Cr7   O19   S    
C99   O55   D    
N6    C114  S    
C47   O31   A    
C100  H56   S    
Cr4   O24   S    
C102  H64   S    
N3    H65   S    
C48   O32   A    
C32   H52   S    
Cr5   O17   S    
N2    C102  S    
C9    H35   S    
C54   C75   S    
C76   O48   A    
C26   H40   S    
C101  H60   S    
C5    C21   S    
C95   H27   S    
C60   C68   T    
C70   O38   A    
C22   C26   S    
C104  H72   S    
C108  H76   S    
N2    H61   S    
C45   O29   A    
Cr8   O52   S    
C65   C81   S    
Cr2   O46   S    
C34   C98   S    
N4    C104  S    
Cr1   O45   S    
C84   O44   A    
C115  H92   S    
C3    O27   A    
Cr10  O18   S    
C55   C74   S    
C14   H46   S    
C4    O28   A    
C98   O54   D    
C93   H1    S    
C106  H74   S    
C57   C65   T    
C8    N8    S    
N5    H81   S    
