data_mof_unit_pretest_1223.cif
_audit_creation_date              2012-12-10T17:15:15-0500
_audit_creation_method            fapswitch 2.2
_symmetry_space_group_name_H-M    P1
_symmetry_Int_Tables_number       1
_space_group_crystal_system       triclinic
_cell_length_a                    15.806682
_cell_length_b                    12.932754
_cell_length_c                    11.824485
_cell_angle_alpha                 99.222874
_cell_angle_beta                  92.255739
_cell_angle_gamma                 92.163874
_cell_volume                      2381.72934373

loop_
_atom_site_label
_atom_site_type_symbol
_atom_type_description
_atom_site_fract_x
_atom_site_fract_y
_atom_site_fract_z
_atom_type_partial_charge
C1    C     C_R   0.498136 0.299632 0.479085 0.801977
C2    C     C_R   0.501914 0.700367 0.520911 0.796969
C3    C     C_R   0.439146 0.017863 0.367320 -0.224132
C4    C     C_R   0.561093 0.982106 0.632586 -0.226003
C5    C     C_R   0.447838 0.126017 0.374315 -0.192177
C6    C     C_R   0.552412 0.873947 0.625568 -0.200675
C7    C     C_R   0.532456 0.138306 0.552479 -0.293644
C8    C     C_R   0.467614 0.861703 0.447567 -0.291447
C9    C     C_R   0.523720 0.030328 0.546575 0.173352
C10   C     C_R   0.476437 0.969664 0.453403 0.170899
C11   C     C_R   0.413858 0.405135 0.030766 0.303850
C12   C     C_R   0.587023 0.593626 0.968976 0.303430
C13   C     C_R   0.423976 0.415349 0.150682 -0.034358
C14   C     C_R   0.576523 0.583915 0.849165 -0.035180
C15   C     C_R   0.539598 0.538718 0.153396 0.095569
C16   C     C_R   0.460584 0.461006 0.846585 0.094941
C17   C     C_R   0.532458 0.533433 0.031057 -0.085126
C18   C     C_R   0.468157 0.465704 0.968801 -0.085878
C19   C     C_R   0.340283 0.501308 0.501508 0.834152
C20   C     C_R   0.659745 0.499845 0.498710 0.829476
C21   C     C_3   0.970564 0.453587 0.579172 -0.270040
C22   C     C_3   0.030717 0.577716 0.433877 -0.271618
C23   C     C_3   0.025522 0.418311 0.475557 0.022743
C24   C     C_3   0.975442 0.613498 0.537634 0.017666
C25   C     C_1   0.251104 0.507348 0.505273 -0.183232
C26   C     C_1   0.749304 0.502656 0.496947 -0.188437
C27   C     C_3   0.030116 0.552781 0.613707 0.012764
C28   C     C_3   0.971054 0.478674 0.399879 0.017594
C29   C     C_3   0.084419 0.516674 0.510650 0.089615
C30   C     C_3   0.916768 0.514820 0.502767 0.091536
C31   C     C_1   0.175892 0.512687 0.508302 -0.090276
C32   C     C_1   0.824976 0.507542 0.498637 -0.091183
C33   C     C_R   0.506519 0.813708 0.532406 -0.036431
C34   C     C_R   0.493606 0.186284 0.467577 -0.039437
Cu1   Cu    Cu3+1 0.506200 0.507730 0.615930 0.928451
Cu2   Cu    Cu3+1 0.493800 0.492270 0.384070 0.930549
H1    H     H_    0.944758 0.404198 0.639476 0.133215
H2    H     H_    0.056629 0.629619 0.376178 0.134835
H3    H     H_    0.430767 0.814937 0.376906 0.141381
H4    H     H_    0.569191 0.185097 0.623240 0.141940
H5    H     H_    0.583053 0.837158 0.691427 0.147997
H6    H     H_    0.417266 0.162783 0.308383 0.147566
H7    H     H_    0.402954 0.972172 0.295406 0.134166
H8    H     H_    0.597344 0.027781 0.704454 0.134959
H9    H     H_    0.617539 0.628774 0.802042 0.127360
H10   H     H_    0.383093 0.370265 0.197745 0.126410
N1    N     N_R   0.515540 0.519350 0.790140 -0.222874
N2    N     N_R   0.484460 0.480650 0.209860 -0.222513
O1    O     O_R   0.504400 0.354460 0.582000 -0.592178
O2    O     O_R   0.495600 0.645540 0.418000 -0.592402
O3    O     O_R   0.493920 0.341410 0.386200 -0.585561
O4    O     O_R   0.506080 0.658590 0.613800 -0.586444
O5    O     O_R   0.384320 0.506520 0.597880 -0.584844
O6    O     O_R   0.615680 0.493480 0.402120 -0.582482
O7    O     O_R   0.373840 0.493460 0.402080 -0.581057
O8    O     O_R   0.626160 0.506540 0.597920 -0.582165
C35   C     C_R   0.056612 0.310325 0.436535 0.116140
C36   C     C_R   0.034693 0.226273 0.493024 -0.173724
C37   C     C_R   0.064577 0.126749 0.455631 -0.153539
C38   C     C_R   0.116797 0.110571 0.362369 -0.108081
C39   C     C_R   0.138687 0.193786 0.305585 -0.137583
C40   C     C_R   0.108423 0.293201 0.342090 -0.121829
H11   H     H_    0.994640 0.237150 0.565668 0.117590
H12   H     H_    0.047352 0.062143 0.499025 0.133859
H13   H     H_    0.140114 0.033534 0.333977 0.120903
H14   H     H_    0.179008 0.181252 0.233195 0.122061
H15   H     H_    0.125609 0.356990 0.297075 0.131116
C41   C     C_R   0.956058 0.727207 0.573712 0.112943
C42   C     C_R   0.023782 0.801291 0.604197 -0.129549
C43   C     C_R   0.008406 0.906797 0.640805 -0.146872
C44   C     C_R   0.925310 0.939736 0.645680 -0.110266
C45   C     C_R   0.857506 0.866950 0.614789 -0.147131
C46   C     C_R   0.872636 0.761086 0.579350 -0.168336
H16   H     H_    0.088615 0.777074 0.600563 0.125893
H17   H     H_    0.060991 0.963035 0.665274 0.121959
H18   H     H_    0.913485 0.021595 0.673389 0.117571
H19   H     H_    0.793075 0.892491 0.618472 0.129316
H20   H     H_    0.818876 0.707141 0.556487 0.138515
C47   C     C_R   0.934610 0.433286 0.282014 0.100859
C48   C     C_R   0.954980 0.478506 0.185630 -0.171602
C49   C     C_R   0.919444 0.435739 0.077228 -0.126648
C50   C     C_R   0.863483 0.347990 0.064345 -0.116284
C51   C     C_R   0.843294 0.302332 0.159745 -0.144245
C52   C     C_R   0.878884 0.344523 0.268132 -0.125349
H21   H     H_    0.997918 0.546685 0.193819 0.120456
H22   H     H_    0.935219 0.470448 0.003022 0.134424
H23   H     H_    0.835935 0.315254 0.980405 0.121432
H24   H     H_    0.800072 0.234225 0.149726 0.130712
H25   H     H_    0.862769 0.308314 0.341393 0.130895
C53   C     C_R   0.054775 0.596018 0.737350 0.111829
C54   C     C_R   0.990994 0.611818 0.817064 -0.137769
C55   C     C_R   0.011460 0.654152 0.931643 -0.149205
C56   C     C_R   0.095742 0.680786 0.967770 -0.100916
C57   C     C_R   0.159502 0.666398 0.888993 -0.130971
C58   C     C_R   0.139192 0.624872 0.774105 -0.178659
H26   H     H_    0.925294 0.591811 0.790269 0.126978
H27   H     H_    0.961951 0.666293 0.992460 0.128430
H28   H     H_    0.111561 0.713205 0.056586 0.115551
H29   H     H_    0.224724 0.688088 0.916803 0.123822
H30   H     H_    0.189518 0.616974 0.714869 0.133984
C59   C     C_R   0.391159 0.394733 0.780741 0.249222
C60   C     C_R   0.309165 0.433009 0.775616 -0.060173
C61   C     C_R   0.241363 0.367658 0.723164 -0.130571
C62   C     C_R   0.254461 0.263197 0.677945 -0.125299
C63   C     C_R   0.334762 0.223075 0.688081 -0.149048
C64   C     C_R   0.402379 0.287912 0.741699 -0.039841
H31   H     H_    0.298271 0.513387 0.811954 0.104635
H32   H     H_    0.178638 0.397813 0.717817 0.141348
H33   H     H_    0.202063 0.212816 0.637114 0.143669
H34   H     H_    0.344373 0.141374 0.655960 0.140539
H35   H     H_    0.463312 0.255001 0.754114 0.111775
C65   C     C_R   0.607675 0.607088 0.219539 0.242808
C66   C     C_R   0.594533 0.713989 0.255247 -0.041732
C67   C     C_R   0.661145 0.781772 0.306550 -0.142598
C68   C     C_R   0.742296 0.744411 0.317859 -0.147291
C69   C     C_R   0.757118 0.639514 0.276983 -0.135123
C70   C     C_R   0.690419 0.571157 0.226766 -0.047732
H36   H     H_    0.532946 0.744777 0.241440 0.109190
H37   H     H_    0.650148 0.863658 0.335603 0.140149
H38   H     H_    0.794028 0.797224 0.356279 0.142674
H39   H     H_    0.820398 0.611435 0.283672 0.145782
H40   H     H_    0.703032 0.490510 0.193322 0.122157
O9    O     O_3   0.351476 0.335631 0.974760 -0.751634
H41   H     H_    0.320310 0.301084 0.030709 0.312541
O10   O     O_3   0.650260 0.661992 0.024682 -0.751495
H42   H     H_    0.681546 0.696308 0.968665 0.313806

loop_
_geom_bond_atom_site_label_1
_geom_bond_atom_site_label_2
_ccdc_geom_bond_type
C25   C31   T    
C63   H34   S    
C11   C18   A    
C26   C32   T    
C56   C57   A    
C22   C29   S    
C27   C29   S    
Cu1   Cu2   S    
C24   C27   S    
C20   O8    A    
Cu1   N1    S    
C67   C68   A    
C35   C36   A    
O9    H41   S    
C69   C70   A    
C3    H7    S    
C37   H12   S    
C59   C60   A    
C40   H15   S    
C23   C29   S    
C42   C43   A    
C65   C70   A    
Cu1   O5    S    
C39   C40   A    
C50   H23   S    
C22   H2    S    
C59   C64   A    
C1    C34   S    
C27   C53   S    
C23   C35   S    
C28   C47   S    
C62   C63   A    
C2    O2    A    
C45   H19   S    
C54   H26   S    
C39   H14   S    
C41   C42   A    
C6    H5    S    
C12   C17   A    
Cu1   O1    S    
C46   H20   S    
C43   C44   A    
C8    H3    S    
C9    C10   A    
C49   H22   S    
C19   O5    A    
C51   H24   S    
C21   C27   S    
C37   C38   A    
C22   C28   S    
C62   H33   S    
C47   C52   A    
C57   C58   A    
C15   N2    A    
C16   N1    A    
C65   C66   A    
C55   H27   S    
C49   C50   A    
C14   H9    S    
C64   H35   S    
C69   H39   S    
C53   C58   A    
C4    C6    A    
C54   C55   A    
C58   H30   S    
C45   C46   A    
C12   O10   S    
C4    H8    S    
C35   C40   A    
C41   C46   A    
C47   C48   A    
C38   C39   A    
C70   H40   S    
C48   H21   S    
C51   C52   A    
C7    H4    S    
C5    C34   A    
C17   C18   A    
C42   H16   S    
C16   C18   A    
C23   C28   S    
C1    O3    A    
C61   H32   S    
Cu2   O3    S    
C2    O4    A    
C2    C33   S    
C20   O6    A    
C12   C14   A    
C38   H13   S    
C68   H38   S    
C21   C23   S    
O10   H42   S    
C7    C34   A    
C22   C24   S    
C52   H25   S    
C60   H31   S    
C43   H17   S    
Cu2   O2    S    
C5    H6    S    
C66   C67   A    
C21   C30   S    
C19   O7    A    
C36   H11   S    
C15   C17   A    
Cu1   O4    S    
Cu1   O8    S    
C15   C65   S    
C11   O9    S    
C67   H37   S    
C48   C49   A    
C3    C5    A    
C13   N2    A    
C14   N1    A    
C63   C64   A    
C6    C33   A    
C28   C30   S    
C36   C37   A    
C44   C45   A    
C29   C31   S    
Cu2   O7    S    
C30   C32   S    
C11   C13   A    
C53   C54   A    
C44   H18   S    
C20   C26   S    
C57   H29   S    
C55   C56   A    
Cu2   N2    S    
C8    C33   A    
C60   C61   A    
C19   C25   S    
C24   C30   S    
Cu2   O6    S    
C24   C41   S    
C66   H36   S    
C7    C9    A    
C16   C59   S    
C21   H1    S    
C8    C10   A    
C50   C51   A    
C61   C62   A    
C3    C10   A    
C13   H10   S    
C4    C9    A    
C1    O1    A    
C56   H28   S    
C68   C69   A    
