data_mof_unit_pretest_472.cif
_audit_creation_date              2012-12-10T18:45:04-0500
_audit_creation_method            fapswitch 2.2
_symmetry_space_group_name_H-M    P1
_symmetry_Int_Tables_number       1
_space_group_crystal_system       triclinic
_cell_length_a                    10.685043
_cell_length_b                    9.81495
_cell_length_c                    10.779587
_cell_angle_alpha                 92.487227
_cell_angle_beta                  89.230294
_cell_angle_gamma                 89.239407
_cell_volume                      1129.21379946

loop_
_atom_site_label
_atom_site_type_symbol
_atom_type_description
_atom_site_fract_x
_atom_site_fract_y
_atom_site_fract_z
_atom_type_partial_charge
C1    C     C_R   0.260337 0.500923 0.500950 0.867489
C2    C     C_R   0.503120 0.503839 0.740749 0.948272
C3    C     C_R   0.330520 0.680225 0.135708 -0.229933
C4    C     C_R   0.406964 0.744492 0.899833 -0.161503
C5    C     C_R   0.283222 0.799279 0.085888 -0.064790
C6    C     C_R   0.325284 0.834254 0.967248 -0.071639
C7    C     C_R   0.446523 0.617538 0.946189 0.059146
C8    C     C_R   0.418848 0.594607 0.070177 0.108613
C9    C     C_R   0.480390 0.486792 0.127323 -0.143545
C10   C     C_R   0.510994 0.511717 0.874711 -0.113089
C11   C     C_R   0.545587 0.382568 0.057594 -0.241374
C12   C     C_R   0.739675 0.499518 0.501983 0.924697
C13   C     C_R   0.564483 0.397468 0.931253 -0.093039
C14   C     C_R   0.066395 0.436397 0.403021 0.118260
C15   C     C_R   0.937908 0.431883 0.405917 0.104616
C16   C     C_R   0.872072 0.499379 0.504561 -0.161273
C17   C     C_R   0.128039 0.503552 0.501692 -0.158540
C18   C     C_2   0.592932 0.255660 0.114101 1.032553
C19   C     C_2   0.643517 0.294153 0.859101 0.948474
C20   C     C_2   0.196889 0.887731 0.163812 0.952346
C21   C     C_2   0.278920 0.957629 0.906196 1.039763
C22   C     C_2   0.861957 0.659245 0.696517 1.014421
C23   C     C_R   0.932881 0.574450 0.599973 -0.198659
C24   C     C_2   0.128961 0.628871 0.711525 0.900179
C25   C     C_R   0.063005 0.571566 0.601086 -0.104252
C26   C     C_R   0.592845 0.073345 0.557155 0.016996
C27   C     C_R   0.407452 0.070491 0.442297 0.013110
C28   C     C_R   0.592543 0.929392 0.557700 -0.027809
C29   C     C_R   0.407406 0.926495 0.442384 -0.010686
C30   C     C_R   0.493825 0.496233 0.260036 0.832226
H1    H     H_    0.298357 0.655354 0.227520 0.162590
H2    H     H_    0.132331 0.080328 0.869126 0.360478
H3    H     H_    0.190420 0.446380 0.259181 0.181742
H4    H     H_    0.187963 0.293837 0.327657 0.200898
H5    H     H_    0.826777 0.281088 0.338005 0.235386
H6    H     H_    0.811979 0.432206 0.266911 0.180096
H7    H     H_    0.952638 0.832280 0.658125 0.313121
H8    H     H_    0.152243 0.624504 0.896788 0.350719
H9    H     H_    0.438821 0.779983 0.812424 0.223697
H10   H     H_    0.667359 0.128933 0.602141 0.144240
H11   H     H_    0.333739 0.123734 0.395870 0.139921
H12   H     H_    0.666288 0.875934 0.604051 0.168920
H13   H     H_    0.333471 0.870589 0.396554 0.142349
H14   H     H_    0.774120 0.294791 0.076203 0.314516
H15   H     H_    0.795916 0.257083 0.749581 0.339993
H16   H     H_    0.140711 0.077712 0.219144 0.350787
N1    N     N_R   0.500000 0.857200 0.500000 -0.101300
N2    N     N_R   0.500000 0.142810 0.500000 -0.096714
N3    N     N_3   0.132571 0.374057 0.297916 -0.396647
N4    N     N_3   0.875443 0.363772 0.304455 -0.393210
O1    O     O_R   0.316770 0.614620 0.499990 -0.591638
O2    O     O_R   0.720492 0.222384 0.113699 -0.755522
O3    O     O_2   0.616512 0.173374 0.858043 -0.565397
O4    O     O_R   0.748161 0.336030 0.792516 -0.762002
O5    O     O_2   0.120752 0.836156 0.232712 -0.622953
O6    O     O_R   0.205185 0.029659 0.162342 -0.768259
O7    O     O_2   0.350373 0.022898 0.842846 -0.587872
O8    O     O_R   0.152522 0.995833 0.916322 -0.738703
O9    O     O_2   0.779252 0.608591 0.757517 -0.541008
O10   O     O_R   0.888971 0.797077 0.718978 -0.751950
O11   O     O_2   0.200159 0.724255 0.701634 -0.627140
O12   O     O_R   0.683230 0.614620 0.500010 -0.626087
O13   O     O_R   0.104549 0.576262 0.827689 -0.761499
O14   O     O_R   0.316800 0.385290 0.500000 -0.635461
O15   O     O_R   0.683200 0.385290 0.500000 -0.630421
O16   O     O_R   0.500010 0.614690 0.316770 -0.610239
O17   O     O_R   0.499990 0.614690 0.683230 -0.615417
O18   O     O_R   0.500040 0.385360 0.316770 -0.610306
O19   O     O_R   0.499960 0.385360 0.683230 -0.603557
O20   O     O_2   0.518380 0.175338 0.155378 -0.527955
Zn1   Zn    Zn3+2 0.500000 0.653120 0.500000 1.006645
Zn2   Zn    Zn3+2 0.500000 0.346880 0.500000 1.004132

loop_
_geom_bond_atom_site_label_1
_geom_bond_atom_site_label_2
_ccdc_geom_bond_type
C27   N2    A    
C18   O20   D    
O19   Zn2   S    
C24   C25   S    
C26   H10   S    
C11   C18   S    
C21   O7    D    
C24   O11   D    
C26   N2    A    
C7    C10   A    
O15   Zn2   S    
C1    O1    A    
C12   O15   A    
C27   H11   S    
C26   C28   A    
O16   Zn1   S    
C4    H9    S    
H2    O8    S    
O18   Zn2   S    
C17   C25   A    
H14   O2    S    
H5    N4    S    
O14   Zn2   S    
C18   O2    S    
C7    C8    A    
C28   N1    A    
C5    C20   S    
C29   H13   S    
C3    H1    S    
C11   C13   A    
C14   C17   A    
C19   O3    D    
C30   O16   A    
O1    Zn1   S    
C9    C30   S    
C29   N1    A    
C20   O5    D    
C9    C11   A    
C19   O4    S    
C28   H12   S    
N2    Zn2   S    
O12   Zn1   S    
C2    O17   A    
C16   C23   A    
O17   Zn1   S    
C20   O6    S    
C23   C25   A    
C22   O10   S    
C5    C6    A    
H15   O4    S    
C24   O13   S    
H7    O10   S    
C27   C29   A    
N1    Zn1   S    
H3    N3    S    
C15   C16   A    
C2    O19   A    
C1    O14   A    
C21   O8    S    
C12   O12   A    
C14   N3    S    
C4    C6    A    
C3    C8    A    
C15   N4    S    
H16   O6    S    
C22   O9    D    
C13   C19   S    
C14   C15   A    
H4    N3    S    
C4    C7    A    
H8    O13   S    
C6    C21   S    
C1    C17   S    
C22   C23   S    
C30   O18   A    
C12   C16   S    
H6    N4    S    
C8    C9    A    
C3    C5    A    
C10   C13   A    
C2    C10   S    
