data_mof_unit_pretest_11.cif
_audit_creation_date              2012-12-11T16:09:00-0500
_audit_creation_method            fapswitch 2.2
_symmetry_space_group_name_H-M    P1
_symmetry_Int_Tables_number       1
_space_group_crystal_system       triclinic
_cell_length_a                    12.950252
_cell_length_b                    13.284252
_cell_length_c                    27.759838
_cell_angle_alpha                 94.697314
_cell_angle_beta                  90.018096
_cell_angle_gamma                 118.997902
_cell_volume                      4158.54216026

loop_
_atom_site_label
_atom_site_type_symbol
_atom_type_description
_atom_site_fract_x
_atom_site_fract_y
_atom_site_fract_z
_atom_type_partial_charge
C1    C     C_R   0.627516 0.896648 0.426990 0.544256
C2    C     C_R   0.117345 0.735272 0.306734 0.018348
C3    C     C_R   0.080277 0.708295 0.206622 0.006033
C4    C     C_R   0.601046 0.221991 0.440517 0.543271
C5    C     C_R   0.040681 0.610822 0.232492 -0.137984
C6    C     C_R   0.058916 0.624269 0.282447 -0.132244
C7    C     C_R   0.064203 0.695206 0.156921 -0.125057
C8    C     C_R   0.099084 0.791927 0.130717 0.005924
C9    C     C_R   0.239712 0.958561 0.354397 -0.136108
C10   C     C_R   0.214025 0.945835 0.305013 0.004744
C11   C     C_R   0.154346 0.833810 0.280903 0.063232
C12   C     C_R   0.611415 0.380951 0.233280 -0.102272
C13   C     C_R   0.253048 0.043122 0.278959 -0.143086
C14   C     C_R   0.231728 0.029500 0.228991 -0.134234
C15   C     C_R   0.173929 0.918526 0.204514 0.016737
C16   C     C_R   0.269582 0.877321 0.425955 0.547110
C17   C     C_R   0.135714 0.820282 0.230696 0.063013
C18   C     C_R   0.153302 0.903495 0.154368 -0.136497
C19   C     C_R   0.211094 0.860912 0.379211 -0.001271
C20   C     C_R   0.745382 0.946917 0.354993 -0.135743
C21   C     C_R   0.749414 0.939716 0.304780 0.021779
C22   C     C_R   0.747143 0.923998 0.203754 0.006440
C23   C     C_R   0.603605 0.366557 0.282713 -0.106186
C24   C     C_R   0.833627 0.023012 0.230435 -0.121854
C25   C     C_R   0.838236 0.031373 0.280895 0.003479
C26   C     C_R   0.752685 0.912547 0.153929 -0.125301
C27   C     C_R   0.680105 0.806236 0.127438 -0.000280
C28   C     C_R   0.626774 0.898907 0.565081 0.543947
C29   C     C_R   0.563250 0.764110 0.351381 -0.124179
C30   C     C_R   0.567443 0.750360 0.300975 0.029240
C31   C     C_R   0.658973 0.840613 0.277632 0.020205
C32   C     C_R   0.478784 0.651562 0.273306 0.144049
C33   C     C_R   0.486202 0.641340 0.222791 -0.111980
C34   C     C_R   0.670362 0.324242 0.304664 0.039295
C35   C     C_R   0.575893 0.730522 0.199665 -0.015072
C36   C     C_R   0.659943 0.832067 0.227064 0.047730
C37   C     C_R   0.587269 0.717439 0.149751 -0.134834
C38   C     C_R   0.649404 0.864098 0.378019 -0.020545
C39   C     C_R   0.744285 0.309486 0.651913 0.124792
C40   C     C_R   0.602047 0.225729 0.578900 0.560343
C41   C     C_R   0.757379 0.328081 0.703054 0.018782
C42   C     C_R   0.776202 0.357607 0.805076 0.008123
C43   C     C_R   0.874216 0.374296 0.778518 -0.144480
C44   C     C_R   0.865127 0.359741 0.728071 -0.138933
C45   C     C_R   0.685294 0.352278 0.205362 0.039365
C46   C     C_R   0.786773 0.380137 0.855336 -0.136848
C47   C     C_R   0.690423 0.372953 0.881128 -0.005821
C48   C     C_R   0.541397 0.274428 0.656692 -0.165362
C49   C     C_R   0.551459 0.287535 0.706579 -0.004099
C50   C     C_R   0.658882 0.313229 0.730081 0.035924
C51   C     C_R   0.453557 0.271488 0.733207 -0.135719
C52   C     C_R   0.271876 0.879547 0.563467 0.543847
C53   C     C_R   0.462041 0.281952 0.783373 -0.138372
C54   C     C_R   0.568689 0.309913 0.807340 0.013714
C55   C     C_R   0.667682 0.325616 0.780825 0.064231
C56   C     C_1   0.695514 0.372008 0.154893 -0.066076
C57   C     C_R   0.579942 0.330404 0.857385 -0.133264
C58   C     C_R   0.633709 0.277963 0.629138 0.020094
C59   C     C_1   0.222768 0.863220 0.610312 -0.019830
C60   C     C_R   0.070184 0.757093 0.718522 -0.115554
C61   C     C_R   0.054742 0.746874 0.768082 -0.109299
C62   C     C_R   0.244284 0.919444 0.786018 -0.113749
C63   C     C_R   0.259539 0.929891 0.736452 -0.109233
C64   C     C_1   0.634012 0.270561 0.395038 -0.023434
C65   C     C_R   0.172894 0.848366 0.702594 0.028115
C66   C     C_R   0.142152 0.827414 0.801925 0.029110
C67   C     C_1   0.653999 0.299576 0.354523 -0.065970
C68   C     C_1   0.124781 0.814741 0.852754 -0.073067
C69   C     C_1   0.194703 0.854741 0.651803 -0.066807
C70   C     C_1   0.100883 0.797437 0.894300 -0.021156
C71   C     C_1   0.641815 0.865061 0.611193 -0.013765
C72   C     C_R   0.765224 0.887468 0.728365 -0.085293
C73   C     C_R   0.772559 0.882279 0.778790 0.017625
C74   C     C_R   0.559048 0.753159 0.775994 -0.114914
C75   C     C_R   0.553548 0.760414 0.726235 -0.110575
C76   C     C_R   0.744969 0.296305 0.276853 -0.105932
C77   C     C_R   0.656525 0.827392 0.702364 0.021348
C78   C     C_1   0.704342 0.397045 0.113724 -0.023263
C79   C     C_R   0.667336 0.813962 0.802469 0.036291
C80   C     C_1   0.671447 0.801240 0.853554 -0.068772
C81   C     C_1   0.649556 0.844162 0.652087 -0.060748
C82   C     C_1   0.685247 0.790695 0.895450 -0.018677
C83   C     C_R   0.060365 0.769406 0.080110 0.545703
C84   C     C_R   0.717155 0.441605 0.067425 0.544390
C85   C     C_R   0.719795 0.782693 0.080718 0.546062
C86   C     C_R   0.056553 0.766186 0.941213 0.546510
C87   C     C_R   0.710564 0.433293 0.929421 0.546625
C88   C     C_R   0.752721 0.310607 0.227322 -0.110533
C89   C     C_R   0.145751 0.749668 0.355961 -0.128839
C90   C     C_R   0.716619 0.776340 0.942973 0.545506
C91   C     C_3   0.940274 0.137962 0.307412 -0.265811
C92   C     C_3   0.032552 0.108981 0.327035 -0.291557
C93   C     C_3   0.139134 0.216261 0.351353 -0.457657
C94   C     C_3   0.268855 0.501340 0.272637 -0.315996
C95   C     C_3   0.910813 0.430446 0.606225 -0.301484
C96   C     C_3   0.889328 0.948509 0.808369 -0.250140
C97   C     C_3   0.998045 0.023464 0.780093 -0.307915
C98   C     C_3   0.107507 0.092094 0.813833 -0.446205
Cr1   Cr    Cr6+3 0.416430 0.829200 0.492370 1.022012
Cr2   Cr    Cr6+3 0.674630 0.087020 0.504170 1.033502
Cr3   Cr    Cr6+3 0.408920 0.083740 0.503490 1.013716
Cr4   Cr    Cr6+3 0.914010 0.832750 0.013970 1.019247
Cr5   Cr    Cr6+3 0.922310 0.578600 0.003000 1.016665
Cr6   Cr    Cr6+3 0.656280 0.574630 0.003870 1.020869
H1    H     H_    0.795861 0.262158 0.293308 0.103553
H2    H     H_    0.810999 0.289198 0.206248 0.098240
H3    H     H_    0.489739 0.700541 0.369824 0.155160
H4    H     H_    0.872379 0.412425 0.873705 0.131914
H5    H     H_    0.958614 0.400421 0.796761 0.110618
H6    H     H_    0.943733 0.375198 0.709210 0.113340
H7    H     H_    0.505044 0.323302 0.877349 0.129498
H8    H     H_    0.386540 0.271698 0.803516 0.101181
H9    H     H_    0.370343 0.250657 0.715221 0.107401
H10   H     H_    0.456699 0.251815 0.639562 0.142640
H11   H     H_    0.003090 0.693112 0.692733 0.108017
H12   H     H_    0.261852 0.105540 0.209459 0.108874
H13   H     H_    0.559742 0.414368 0.216815 0.109444
H14   H     H_    0.975135 0.675560 0.780022 0.120925
H15   H     H_    0.312027 0.982619 0.811809 0.113854
H16   H     H_    0.339741 0.000432 0.724497 0.123229
H17   H     H_    0.842815 0.939142 0.708789 0.104702
H18   H     H_    0.478616 0.700282 0.793918 0.114554
H19   H     H_    0.468752 0.714905 0.706469 0.117057
H20   H     H_    0.544482 0.387045 0.303648 0.100153
H21   H     H_    0.018752 0.608250 0.138868 0.137481
H22   H     H_    0.123756 0.674859 0.375508 0.122658
H23   H     H_    0.300420 0.129645 0.297187 0.111563
H24   H     H_    0.996977 0.524399 0.214021 0.107047
H25   H     H_    0.030067 0.548203 0.301882 0.106675
H26   H     H_    0.178257 0.977447 0.133907 0.111087
H27   H     H_    0.185976 0.278916 0.324435 0.146393
H28   H     H_    0.110773 0.257841 0.380861 0.157085
H29   H     H_    0.201398 0.191345 0.367084 0.142579
H30   H     H_    0.993667 0.043677 0.353611 0.166962
H31   H     H_    0.062582 0.071680 0.296568 0.181508
H32   H     H_    0.984247 0.206783 0.282468 0.127734
H33   H     H_    0.907860 0.175904 0.336773 0.133337
H34   H     H_    0.291016 0.044924 0.372501 0.134381
H35   H     H_    0.409050 0.512050 0.315216 0.238938
H36   H     H_    0.201267 0.461008 0.299749 0.138094
H37   H     H_    0.263405 0.432197 0.245673 0.121783
H38   H     H_    0.249002 0.562055 0.254578 0.172170
H39   H     H_    0.886870 0.282012 0.636301 0.245486
H40   H     H_    0.977352 0.427342 0.581843 0.142904
H41   H     H_    0.957618 0.496140 0.637265 0.131616
H42   H     H_    0.855003 0.455978 0.585580 0.153205
H43   H     H_    0.097048 0.156181 0.838658 0.149884
H44   H     H_    0.122886 0.033753 0.835578 0.167609
H45   H     H_    0.822619 0.982796 0.136595 0.129819
H46   H     H_    0.185384 0.138704 0.791893 0.138155
H47   H     H_    0.014994 0.967357 0.752991 0.175739
H48   H     H_    0.982734 0.086047 0.761223 0.157897
H49   H     H_    0.879327 0.005524 0.837453 0.155154
H50   H     H_    0.906245 0.885154 0.825860 0.157250
H51   H     H_    0.811537 0.022376 0.376471 0.140503
H52   H     H_    0.901224 0.092075 0.211735 0.095020
H53   H     H_    0.529459 0.635792 0.129117 0.124520
H54   H     H_    0.422577 0.563548 0.201409 0.107682
N1    N     N_2   0.384914 0.562367 0.296833 -0.529176
N2    N     N_2   0.838887 0.317939 0.623209 -0.495834
O1    O     O_R   0.296680 0.802170 0.437540 -0.513862
O2    O     O_R   0.637200 0.461990 0.052510 -0.510496
O3    O     O_R   0.664790 0.681920 0.057970 -0.502332
O4    O     O_R   0.525380 0.838530 0.443500 -0.500665
O5    O     O_R   0.815840 0.852920 0.961840 -0.512855
O6    O     O_R   0.012100 0.822630 0.963670 -0.496750
O7    O     O_R   0.037010 0.668460 0.953040 -0.509619
O8    O     O_R   0.813390 0.478970 0.949660 -0.504944
O9    O     O_R   0.632250 0.456930 0.945520 -0.517567
O10   O     O_R   0.660200 0.677230 0.958780 -0.492782
O11   O     O_3   0.830870 0.661990 0.006950 -0.244142
O12   O     O_R   0.662610 0.183990 0.557860 -0.460478
O13   O     O_R   0.702130 0.995190 0.446810 -0.523004
O14   O     O_R   0.661770 0.181390 0.458760 -0.495970
O15   O     O_R   0.499820 0.198480 0.455280 -0.515860
O16   O     O_R   0.311660 0.976250 0.449080 -0.507546
O17   O     O_R   0.297580 0.804960 0.544440 -0.510584
O18   O     O_R   0.526220 0.841130 0.542590 -0.496251
O19   O     O_R   0.703030 0.997990 0.553710 -0.504472
O20   O     O_R   0.500730 0.201280 0.562180 -0.533806
O21   O     O_R   0.312500 0.978850 0.548170 -0.496964
O22   O     O_3   0.499990 0.999990 0.500010 -0.247140
O23   O     O_R   0.820790 0.857990 0.068830 -0.520840
O24   O     O_R   0.016700 0.827330 0.062850 -0.497706
O25   O     O_R   0.041970 0.673520 0.060040 -0.523063
O26   O     O_R   0.817980 0.483660 0.048840 -0.501031

loop_
_geom_bond_atom_site_label_1
_geom_bond_atom_site_label_2
_ccdc_geom_bond_type
C20   C38   A    
C15   C18   A    
C66   C68   S    
C63   C65   A    
Cr5   O7    S    
C76   H1    S    
C20   H51   S    
C72   H17   S    
Cr2   O12   S    
C8    C83   S    
C94   H36   S    
C84   O26   A    
C35   C36   A    
Cr5   O25   S    
Cr6   O3    S    
C97   C98   S    
C84   O2    A    
C7    C8    A    
C39   C41   A    
C57   H7    S    
C53   C54   A    
C95   H42   S    
C12   C23   A    
C1    O13   A    
C26   C27   A    
C51   H9    S    
C75   H19   S    
Cr4   O23   S    
C48   H10   S    
C35   C37   A    
Cr1   O17   S    
C3    C7    A    
Cr6   O2    S    
C5    C6    A    
C39   N2    S    
C14   H12   S    
C98   H43   S    
C87   O9    A    
C56   C78   T    
C42   C46   A    
C37   H53   S    
C27   C85   S    
C52   O17   A    
Cr1   O22   S    
C21   C25   A    
C40   O20   A    
C61   C66   A    
C9    C19   A    
C96   H50   S    
C91   H32   S    
C87   O8    A    
C45   C56   S    
C28   O18   A    
C49   C51   A    
C4    O15   A    
C95   H41   S    
C29   C38   A    
C93   H28   S    
Cr2   O22   S    
C9    C10   A    
C76   C88   A    
C32   N1    S    
C16   O16   A    
H35   N1    S    
Cr5   O8    S    
C85   O23   A    
Cr1   O1    S    
C13   C14   A    
Cr5   O11   S    
C90   O10   A    
C2    C6    A    
Cr5   O26   S    
Cr1   O4    S    
C6    H25   S    
C2    C11   A    
C89   H22   S    
C73   C79   A    
C25   C91   S    
C40   C58   S    
C74   C75   A    
C62   C66   A    
C13   H23   S    
C95   N2    S    
C94   H38   S    
C64   C67   T    
H39   N2    S    
C45   C88   A    
C24   C25   A    
C1    O4    A    
Cr1   O18   S    
C80   C82   T    
C91   C92   S    
C72   C73   A    
Cr3   O16   S    
C39   C58   A    
C94   N1    S    
C8    C18   A    
C12   H13   S    
C46   H4    S    
C60   C61   A    
C51   C53   A    
C47   C87   S    
C2    C89   A    
C43   C44   A    
C72   C77   A    
C19   C89   A    
C52   C59   S    
C42   C55   A    
C47   C57   A    
C88   H2    S    
C9    H34   S    
C96   H49   S    
C77   C81   S    
C23   C34   A    
C96   C97   S    
C21   C31   A    
C62   C63   A    
C97   H47   S    
C46   C47   A    
C7    H21   S    
C75   C77   A    
C62   H15   S    
Cr4   O6    S    
C1    C38   S    
C59   C69   T    
Cr6   O11   S    
C53   H8    S    
C48   C49   A    
C74   H18   S    
C60   C65   A    
Cr4   O5    S    
C74   C79   A    
C90   O5    A    
Cr2   O14   S    
C85   O3    A    
C41   C44   A    
C22   C24   A    
C18   H26   S    
C28   C71   S    
C42   C43   A    
C70   C86   S    
C41   C50   A    
C40   O12   A    
Cr3   O21   S    
C33   H54   S    
Cr6   O10   S    
C98   H46   S    
Cr4   O11   S    
C15   C17   A    
C91   H33   S    
C54   C55   A    
C11   C17   A    
C61   H14   S    
C31   C36   A    
C94   H37   S    
C26   H45   S    
C92   H30   S    
C86   O7    A    
C12   C45   A    
C3    C5    A    
C10   C13   A    
C34   C67   S    
C48   C58   A    
C23   H20   S    
C16   O1    A    
C22   C36   A    
C4    C64   S    
C93   H29   S    
C50   C55   A    
C82   C90   S    
C86   O6    A    
Cr4   O24   S    
C32   C33   A    
Cr3   O20   S    
C30   C32   A    
C63   H16   S    
C30   C31   A    
C98   H44   S    
C52   O21   A    
C27   C37   A    
C16   C19   S    
C65   C69   S    
C5    H24   S    
C92   C93   S    
C33   C35   A    
C97   H48   S    
C83   O24   A    
C3    C17   A    
C28   O19   A    
Cr3   O15   S    
C10   C11   A    
C29   C30   A    
C79   C80   S    
C92   H31   S    
C78   C84   S    
C95   H40   S    
C20   C21   A    
C68   C70   T    
C49   C50   A    
C22   C26   A    
Cr2   O13   S    
C14   C15   A    
C83   O25   A    
C60   H11   S    
C4    O14   A    
C43   H5    S    
C73   C96   S    
C93   H27   S    
Cr2   O19   S    
C29   H3    S    
Cr3   O22   S    
C24   H52   S    
C34   C76   A    
Cr6   O9    S    
C71   C81   T    
C54   C57   A    
C44   H6    S    
