data_mof_unit_pretest_154.cif
_audit_creation_date              2012-12-11T16:06:46-0500
_audit_creation_method            fapswitch 2.2
_symmetry_space_group_name_H-M    P1
_symmetry_Int_Tables_number       1
_space_group_crystal_system       triclinic
_cell_length_a                    8.313676
_cell_length_b                    12.890916
_cell_length_c                    17.415945
_cell_angle_alpha                 95.939458
_cell_angle_beta                  96.393411
_cell_angle_gamma                 97.45364
_cell_volume                      1825.98344727

loop_
_atom_site_label
_atom_site_type_symbol
_atom_type_description
_atom_site_fract_x
_atom_site_fract_y
_atom_site_fract_z
_atom_type_partial_charge
Ba1   Ba    Ba6+2 0.158660 0.552610 0.463110 1.637239
Ba2   Ba    Ba6+2 0.651510 0.447380 0.536830 1.640529
C1    C     C_3   0.366233 0.816555 0.170803 -0.334273
C2    C     C_R   0.735182 0.818052 0.470604 -0.287910
C3    C     C_R   0.702492 0.994338 0.439731 -0.101582
C4    C     C_3   0.911756 0.832910 0.283452 0.339926
C5    C     C_R   0.638803 0.887350 0.438422 -0.003331
C6    C     C_R   0.889420 0.852956 0.512152 0.054612
C7    C     C_R   0.952401 0.965605 0.519178 -0.022776
C8    C     C_R   0.859418 0.036049 0.479163 -0.079425
C9    C     C_R   0.924334 0.146925 0.483775 0.049894
C10   C     C_R   0.174114 0.114274 0.557857 0.014766
C11   C     C_R   0.098791 0.013253 0.567709 -0.032275
C12   C     C_3   0.397892 0.785015 0.252239 0.376370
C13   C     C_R   0.600028 0.538651 0.281051 -0.287452
C14   C     C_R   0.442947 0.484550 0.256505 0.065735
C15   C     C_R   0.380124 0.473872 0.177146 -0.117569
C16   C     C_3   0.864959 0.922905 0.239764 -0.388713
C17   C     C_R   0.475671 0.516257 0.122880 -0.007861
C18   C     C_R   0.635898 0.566032 0.148057 -0.134082
C19   C     C_R   0.698624 0.575464 0.226833 0.011571
C20   C     C_R   0.414195 0.522350 0.836730 -0.126036
C21   C     C_R   0.363282 0.505304 0.756185 0.033161
C22   C     C_R   0.102387 0.413331 0.780251 0.021173
C23   C     C_3   0.571374 0.770449 0.661586 0.377749
C24   C     C_R   0.153220 0.430879 0.860586 -0.143910
C25   C     C_R   0.311504 0.481937 0.888971 0.000469
C26   C     C_1   0.366493 0.495007 0.971771 -0.001656
C27   C     C_1   0.414082 0.504650 0.040819 -0.000788
C28   C     C_3   0.745579 0.315168 0.305663 0.339545
C29   C     C_R   0.212630 0.443485 0.728241 -0.202438
C30   C     C_3   0.697931 0.284645 0.218566 -0.381476
C31   C     C_3   0.103667 0.713244 0.704356 0.280437
C32   C     C_3   0.200385 0.782019 0.776576 0.495098
C33   C     C_3   0.247190 0.229934 0.365647 0.376571
C34   C     C_3   0.655068 0.878754 0.700252 -0.274075
C35   C     C_3   0.233467 0.111463 0.344566 0.516518
C36   C     C_3   0.984492 0.632623 0.733860 -0.385050
C37   C     C_3   0.633791 0.962673 0.646958 -0.378335
C38   C     C_3   0.141213 0.977555 0.644830 -0.287410
C39   C     C_3   0.163395 0.410286 0.643368 -0.284208
C40   C     C_3   0.942807 0.175089 0.773710 0.296560
C41   C     C_3   0.903233 0.091563 0.827066 -0.381548
C42   C     C_3   0.408396 0.220536 0.746934 0.405401
C43   C     C_3   0.424660 0.186607 0.828150 -0.358744
C44   C     C_R   0.084550 0.179663 0.517827 -0.290308
F1    F     F_    0.308445 0.861751 0.756581 -0.738771
F2    F     F_    0.380817 0.085972 0.324305 -0.686137
H1    H     H_    0.317281 0.709891 0.254707 0.074015
H2    H     H_    0.235871 0.826830 0.157575 0.147535
H3    H     H_    0.137466 0.085932 0.294407 -0.007362
H4    H     H_    0.200889 0.069331 0.394232 -0.051039
H5    H     H_    0.527954 0.772791 0.262773 -0.082097
H6    H     H_    0.394807 0.754272 0.127515 0.059061
H7    H     H_    0.663162 0.730452 0.632516 0.004431
H8    H     H_    0.467871 0.777404 0.617004 0.046454
H9    H     H_    0.786934 0.876393 0.717442 0.095189
H10   H     H_    0.602136 0.901423 0.754225 0.213355
H11   H     H_    0.444549 0.891778 0.166358 0.128585
H12   H     H_    0.583916 0.227054 0.207682 0.159592
H13   H     H_    0.755233 0.894497 0.196727 0.115882
H14   H     H_    0.957943 0.137190 0.715259 0.000152
H15   H     H_    0.060673 0.221015 0.800866 -0.018940
H16   H     H_    0.986404 0.031096 0.821591 0.085897
H17   H     H_    0.919485 0.128669 0.888413 0.110488
H18   H     H_    0.774871 0.053364 0.812482 0.133974
H19   H     H_    0.279451 0.232228 0.731299 -0.119641
H20   H     H_    0.489677 0.296270 0.748011 0.096081
H21   H     H_    0.389280 0.247963 0.870043 0.061971
H22   H     H_    0.552959 0.175653 0.846453 0.148554
H23   H     H_    0.677402 0.354960 0.189422 0.052173
H24   H     H_    0.014544 0.863693 0.329955 0.077213
H25   H     H_    0.343216 0.111345 0.828852 0.134859
H26   H     H_    0.626855 0.044665 0.411447 0.176909
H27   H     H_    0.140880 0.258725 0.513476 0.036640
H28   H     H_    0.684554 0.735794 0.467330 0.063809
H29   H     H_    0.531424 0.568917 0.858632 0.083565
H30   H     H_    0.712536 0.595794 0.106482 0.079951
H31   H     H_    0.069668 0.405102 0.900577 0.071906
H32   H     H_    0.259137 0.430995 0.157650 0.088102
H33   H     H_    0.649644 0.546033 0.341826 0.065966
H34   H     H_    0.797363 0.248689 0.193070 0.117022
H35   H     H_    0.803787 0.802504 0.311141 -0.050603
H36   H     H_    0.836893 0.987535 0.281246 0.086380
H37   H     H_    0.966778 0.953378 0.208329 0.133935
H38   H     H_    0.642238 0.345634 0.330955 0.012079
H39   H     H_    0.854134 0.377113 0.314920 0.050792
H40   H     H_    0.937897 0.569200 0.686074 0.163890
H41   H     H_    0.043076 0.600229 0.784305 0.015180
H42   H     H_    0.882570 0.670829 0.754860 0.141280
H43   H     H_    0.693174 0.946657 0.595093 0.093071
H44   H     H_    0.502105 0.963010 0.628860 0.176551
H45   H     H_    0.187439 0.674591 0.669443 0.024759
H46   H     H_    0.690016 0.040926 0.676554 0.187634
H47   H     H_    0.026850 0.952600 0.668752 0.118309
H48   H     H_    0.224855 0.918512 0.638793 0.202987
H49   H     H_    0.198539 0.041868 0.689650 0.110492
H50   H     H_    0.115149 0.325537 0.635938 0.053868
H51   H     H_    0.084180 0.463699 0.617527 0.124793
H52   H     H_    0.257357 0.409111 0.607667 0.166943
H53   H     H_    0.271127 0.733341 0.812892 -0.012348
H54   H     H_    0.115444 0.818476 0.812589 0.006892
H55   H     H_    0.125910 0.250222 0.376750 -0.141680
H56   H     H_    0.338131 0.253207 0.418375 0.036660
O1    O     O_2   0.163080 0.763400 0.536930 -0.468820
O2    O     O_2   0.770752 0.432295 0.773964 -0.487171
O3    O     O_3   0.814237 0.235980 0.766685 -0.575735
O4    O     O_3   0.893330 0.628980 0.538660 -0.490443
O5    O     O_3   0.422000 0.445190 0.409310 -0.497083
O6    O     O_2   0.648720 0.552000 0.685060 -0.458945
O7    O     O_3   0.509589 0.716044 0.719896 -0.625596
O8    O     O_2   0.510049 0.119655 0.549484 -0.468246
O9    O     O_3   0.454175 0.142822 0.694264 -0.589912
O10   O     O_3   0.379830 0.697590 0.399610 -0.498289
O11   O     O_2   0.305792 0.884992 0.450899 -0.471917
O12   O     O_3   0.295993 0.278723 0.302506 -0.628382
O13   O     O_3   0.011394 0.776026 0.661754 -0.654494
O14   O     O_3   0.362742 0.864789 0.306552 -0.542641
O15   O     O_2   0.161570 0.447940 0.314920 -0.462644
O16   O     O_3   0.953630 0.643360 0.361440 -0.483821
O17   O     O_2   0.032491 0.564514 0.225015 -0.487905
O18   O     O_3   0.962217 0.756532 0.231067 -0.595341
O19   O     O_2   0.647210 0.236530 0.463040 -0.438189
O20   O     O_3   0.916960 0.371010 0.461280 -0.508497
O21   O     O_3   0.430470 0.302400 0.600330 -0.502069
O22   O     O_3   0.781604 0.225362 0.338804 -0.618443
O23   O     O_3   0.388290 0.554800 0.590630 -0.505203
O24   O     O_3   0.856660 0.356630 0.638500 -0.472907
P1    P     P_3+3 0.990420 0.746550 0.559720 0.974469
P2    P     P_3+3 0.330880 0.415450 0.326700 0.992032
P3    P     P_3+3 0.911845 0.631919 0.260339 0.954197
P4    P     P_3+3 0.819870 0.253440 0.440220 1.004926
P5    P     P_3+3 0.887007 0.359609 0.740884 0.958500
P6    P     P_3+3 0.423294 0.834660 0.400169 0.999866
P7    P     P_3+3 0.473375 0.581690 0.689011 0.925151
P8    P     P_3+3 0.389242 0.167070 0.599437 0.956248

loop_
_geom_bond_atom_site_label_1
_geom_bond_atom_site_label_2
_ccdc_geom_bond_type
C22   P5    S    
C28   O22   S    
Ba2   O5    S    
C31   O13   S    
O19   P4    D    
O16   P3    S    
C37   H44   S    
C17   C18   A    
C23   H8    S    
C2    C6    A    
C9    P4    S    
Ba2   O24   S    
C13   H33   S    
Ba2   O19   S    
C4    H24   S    
C36   H41   S    
C24   C25   A    
C32   H54   S    
C31   C36   S    
C26   C27   T    
C33   C35   S    
O8    P8    D    
C34   H10   S    
C35   H3    S    
C1    H6    S    
C12   H1    S    
C13   C14   A    
O15   P2    D    
O20   P4    S    
C43   H25   S    
Ba1   Ba2   S    
Ba1   O15   S    
C3    H26   S    
C7    C11   A    
C19   P3    S    
C11   C38   S    
Ba1   O5    S    
O2    P5    D    
C14   C15   A    
C12   O14   S    
O9    P8    S    
Ba2   P4    S    
C39   H51   S    
C28   H38   S    
O13   P1    S    
C40   O3    S    
C40   H14   S    
O14   P6    S    
Ba2   O23   S    
Ba1   P1    S    
O6    P7    D    
O17   P3    D    
C2    C5    A    
C37   H43   S    
C44   H27   S    
C1    H2    S    
C41   H16   S    
C30   H23   S    
C4    C16   S    
C16   H37   S    
C2    H28   S    
C43   H21   S    
C32   H53   S    
C23   H7    S    
C5    P6    S    
C10   C44   A    
Ba1   P2    S    
C38   H49   S    
C3    C5    A    
C35   H4    S    
C6    C7    A    
O1    P1    D    
Ba1   O4    S    
C15   H32   S    
C36   H40   S    
Ba1   O16   S    
C21   C29   A    
C37   H46   S    
C16   H36   S    
O22   P4    S    
C41   H17   S    
C31   C32   S    
O10   P6    S    
C39   H52   S    
C33   O12   S    
C10   C11   A    
C35   F2    S    
O4    P1    S    
C1    C12   S    
O21   P8    S    
C42   O9    S    
C34   H9    S    
C20   C25   A    
C10   P8    S    
C42   H20   S    
Ba1   O10   S    
C30   H12   S    
C38   H47   S    
C17   C27   S    
O18   P3    S    
C6    P1    S    
C14   P2    S    
C42   C43   S    
C7    C8    A    
Ba2   O6    S    
C4    H35   S    
C29   C39   S    
C43   H22   S    
C39   H50   S    
C34   C37   S    
Ba1   O23   S    
C20   H29   S    
C22   C24   A    
C42   H19   S    
C31   H45   S    
C16   H13   S    
O11   P6    D    
Ba2   O20   S    
C33   H56   S    
C30   H34   S    
C36   H42   S    
C33   H55   S    
C24   H31   S    
C21   P7    S    
C38   H48   S    
Ba1   O20   S    
C3    C8    A    
O3    P5    S    
O24   P5    S    
C28   C30   S    
O7    P7    S    
C18   H30   S    
C41   H18   S    
Ba2   O4    S    
C15   C17   A    
O23   P7    S    
C22   C29   A    
C8    C9    A    
C23   O7    S    
C23   C34   S    
Ba2   O21   S    
C13   C19   A    
C12   H5    S    
O12   P2    S    
C18   C19   A    
C40   C41   S    
O5    P2    S    
C4    O18   S    
C20   C21   A    
C9    C44   A    
C32   F1    S    
C28   H39   S    
C40   H15   S    
Ba1   O1    S    
C25   C26   S    
C1    H11   S    
