data_mof_unit_pretest_1052.cif
_audit_creation_date              2012-12-10T17:12:43-0500
_audit_creation_method            fapswitch 2.2
_symmetry_space_group_name_H-M    P1
_symmetry_Int_Tables_number       1
_space_group_crystal_system       triclinic
_cell_length_a                    23.355252
_cell_length_b                    10.697428
_cell_length_c                    10.108977
_cell_angle_alpha                 91.437153
_cell_angle_beta                  91.679649
_cell_angle_gamma                 90.372747
_cell_volume                      2523.69263371

loop_
_atom_site_label
_atom_site_type_symbol
_atom_type_description
_atom_site_fract_x
_atom_site_fract_y
_atom_site_fract_z
_atom_type_partial_charge
C1    C     C_R   0.501531 0.262891 0.497997 0.867204
C2    C     C_R   0.119631 0.659232 0.479734 0.694568
C3    C     C_R   0.245496 0.616178 0.585463 -0.167590
C4    C     C_R   0.389480 0.499825 0.498304 1.047483
C5    C     C_R   0.303926 0.600042 0.582845 0.601251
C6    C     C_R   0.327263 0.511418 0.495510 -0.345123
C7    C     C_R   0.291317 0.440084 0.406070 0.247722
C8    C     C_R   0.232005 0.468000 0.399252 0.243117
C9    C     C_R   0.209599 0.550143 0.496287 0.025774
C10   C     C_R   0.762789 0.481768 0.626395 -0.133010
C11   C     C_R   0.703555 0.470990 0.620170 -0.103766
C12   C     C_R   0.977040 0.333249 0.611633 0.641368
C13   C     C_R   0.673027 0.501814 0.504479 -0.132382
C14   C     C_R   0.702583 0.536312 0.392010 -0.208470
C15   C     C_R   0.762019 0.543318 0.396745 0.728987
C16   C     C_R   0.503696 0.736884 0.502030 0.809250
C17   C     C_R   0.792280 0.518239 0.514909 0.094026
C18   C     C_2   0.522045 0.930226 0.397816 -0.288121
C19   C     C_2   0.518412 0.866296 0.508657 0.565599
C20   C     C_2   0.530649 0.063531 0.405615 0.272862
C21   C     C_2   0.498769 0.130510 0.490671 0.424553
C22   C     C_2   0.544131 0.524052 0.932909 0.347959
C23   C     C_R   0.036299 0.341277 0.617316 0.630411
C24   C     C_2   0.543611 0.482216 0.072527 0.638618
C25   C     C_R   0.610584 0.499714 0.501466 0.927688
C26   C     C_R   0.878837 0.640062 0.496524 0.692974
C27   C     C_R   0.884688 0.425489 0.553870 0.636783
C28   C     C_R   0.944299 0.434146 0.566140 -0.251621
C29   C     C_R   0.971654 0.546287 0.530162 -0.124133
C30   C     C_R   0.938869 0.649254 0.487758 -0.137858
C31   C     C_R   0.064167 0.449396 0.575007 -0.230291
C32   C     C_R   0.031849 0.553262 0.532703 -0.111692
C33   C     C_R   0.059774 0.663891 0.494603 -0.141269
C34   C     C_R   0.026850 0.771229 0.464700 0.311971
C35   C     C_R   0.966996 0.758117 0.443124 0.322396
C36   C     C_R   0.123735 0.455755 0.571017 0.657078
F1    F     F_    0.952062 0.226347 0.652240 -0.508893
F2    F     F_    0.790183 0.574469 0.286618 -0.588434
F3    F     F_    0.532283 0.919360 0.629642 -0.548835
F4    F     F_    0.457473 0.076319 0.563221 -0.576839
F5    F     F_    0.592768 0.435799 0.126124 -0.586708
F6    F     F_    0.066046 0.241144 0.661512 -0.532054
F7    F     F_    0.337837 0.670316 0.667611 -0.592251
H1    H     H_    0.681667 0.437627 0.705167 0.225793
H2    H     H_    0.127681 0.010292 0.595551 0.429054
H3    H     H_    0.859988 0.850541 0.192738 0.407023
H4    H     H_    0.388535 0.178384 0.344804 0.394981
H5    H     H_    0.176198 0.246560 0.393520 0.381974
H6    H     H_    0.679807 0.558958 0.300934 0.238935
H7    H     H_    0.517307 0.885736 0.300204 0.211944
H8    H     H_    0.473320 0.432842 0.883276 0.194284
H9    H     H_    0.227650 0.679545 0.658418 0.219476
H10   H     H_    0.785880 0.460924 0.717570 0.209733
H11   H     H_    0.651597 0.051289 0.185764 0.406993
H12   H     H_    0.635790 0.791918 0.009288 0.404816
H13   H     H_    0.369499 0.582193 0.967031 0.419680
N1    N     N_R   0.853409 0.527988 0.521317 -0.356994
N2    N     N_R   0.149454 0.555760 0.516133 -0.336610
N3    N     N_2   0.500610 0.501330 0.852150 -0.214714
N4    N     N_2   0.500630 0.501360 0.147810 -0.031036
O1    O     O_R   0.499990 0.319060 0.613040 -0.589781
O2    O     O_R   0.583840 0.500020 0.613040 -0.608705
O3    O     O_R   0.583850 0.500060 0.386900 -0.561815
O4    O     O_2   0.845913 0.742635 0.487122 -0.436218
O5    O     O_2   0.552963 0.183104 0.183403 -0.231716
O6    O     O_2   0.618157 0.224363 0.374960 -0.291855
O7    O     O_3   0.625682 0.011064 0.248105 -0.498675
O8    O     O_2   0.655353 0.565569 0.898414 -0.291006
O9    O     O_2   0.589318 0.699721 0.773797 -0.214878
O10   O     O_3   0.602064 0.738700 0.026329 -0.491883
O11   O     O_2   0.415858 0.660919 0.208448 -0.219420
O12   O     O_2   0.857873 0.315593 0.573408 -0.416336
O13   O     O_2   0.468391 0.704762 0.012431 -0.247349
O14   O     O_3   0.395822 0.518745 0.003780 -0.513177
O15   O     O_2   0.083710 0.959161 0.351826 -0.154474
O16   O     O_2   0.013326 0.018906 0.516479 -0.147502
O17   O     O_3   0.109206 0.927010 0.600761 -0.483484
O18   O     O_2   0.900818 0.962040 0.417159 -0.152102
O19   O     O_2   0.971843 0.926456 0.246843 -0.192657
O20   O     O_3   0.881896 0.785188 0.239509 -0.460113
O21   O     O_2   0.275553 0.209606 0.289053 -0.194044
O22   O     O_2   0.341900 0.354218 0.187180 -0.178621
O23   O     O_2   0.156141 0.362103 0.618819 -0.461303
O24   O     O_3   0.374077 0.245981 0.403411 -0.550747
O25   O     O_2   0.137541 0.497955 0.242437 -0.239583
O26   O     O_2   0.217494 0.389757 0.143426 -0.134047
O27   O     O_3   0.156236 0.270298 0.310295 -0.417475
O28   O     O_2   0.147696 0.752562 0.421603 -0.427748
O29   O     O_R   0.500010 0.319100 0.386900 -0.593468
O30   O     O_R   0.416150 0.499940 0.613100 -0.561883
O31   O     O_R   0.416160 0.499980 0.386960 -0.540771
O32   O     O_R   0.499990 0.680900 0.613100 -0.506351
O33   O     O_R   0.500010 0.680940 0.386960 -0.633808
S1    S     S_3+6 0.582684 0.126324 0.301049 0.085683
S2    S     S_3+6 0.599113 0.632550 0.900633 0.129602
S3    S     S_3+6 0.445435 0.600892 0.093885 0.130975
S4    S     S_3+6 0.057850 0.924297 0.480403 0.180748
S5    S     S_3+6 0.930591 0.863920 0.335830 0.166004
S6    S     S_3+6 0.319936 0.309930 0.316195 0.130654
S7    S     S_3+6 0.185337 0.407850 0.268973 0.167292
Zn1   Zn    Zn3+2 0.499990 0.499970 0.650990 1.145564
Zn2   Zn    Zn3+2 0.500010 0.500030 0.349010 1.180844

loop_
_geom_bond_atom_site_label_1
_geom_bond_atom_site_label_2
_ccdc_geom_bond_type
C1    C21   S    
O29   Zn2   S    
C22   S2    S    
O19   S5    D    
C7    C8    A    
O30   Zn1   S    
C12   C23   A    
C16   O33   A    
C23   F6    S    
C7    S6    S    
C30   C35   A    
C12   C28   A    
C28   C29   A    
C9    N2    S    
C29   C32   A    
C36   N2    A    
C25   O3    A    
C5    C6    A    
C14   H6    S    
C36   O23   S    
O15   S4    D    
C34   S4    S    
C34   C35   A    
O22   S6    D    
C12   F1    S    
C10   H10   S    
C26   O4    S    
C8    C9    A    
O18   S5    D    
O7    S1    S    
O17   S4    S    
C35   S5    S    
O26   S7    D    
O6    S1    D    
O2    Zn1   S    
C5    F7    S    
C13   C14   A    
C24   F5    S    
C13   C25   S    
O3    Zn2   S    
N4    Zn2   S    
C4    O30   A    
O8    S2    D    
H13   O14   S    
N3    Zn1   S    
O14   S3    S    
C4    C6    S    
C27   N1    A    
C22   N3    D    
C18   C19   D    
H11   O7    S    
O21   S6    D    
C3    C5    A    
O16   S4    D    
C23   C31   A    
O1    Zn1   S    
C15   F2    S    
C29   C30   A    
C3    C9    A    
C31   C32   A    
C24   N4    D    
C33   C34   A    
H5    O27   S    
C11   H1    S    
H4    O24   S    
C2    O28   S    
C19   F3    S    
O32   Zn1   S    
N4    S3    S    
C2    C33   A    
O5    S1    D    
C16   O32   A    
C22   C24   S    
H8    N3    S    
O31   Zn2   S    
C18   H7    S    
O27   S7    S    
C15   C17   A    
C20   S1    S    
C1    O29   A    
O20   S5    S    
C31   C36   A    
O24   S6    S    
O9    S2    D    
C1    O1    A    
O33   Zn2   S    
C3    H9    S    
C2    N2    A    
C26   C30   A    
C6    C7    A    
O11   S3    D    
C32   C33   A    
C4    O31   A    
O10   S2    S    
C8    S7    S    
O25   S7    D    
H3    O20   S    
C11   C13   A    
C21   F4    S    
C16   C19   S    
C18   C20   S    
C25   O2    A    
C26   N1    A    
H12   O10   S    
C10   C11   A    
C20   C21   D    
C27   C28   A    
C14   C15   A    
H2    O17   S    
C10   C17   A    
O13   S3    D    
C27   O12   S    
C17   N1    S    
