data_mof_unit_pretest_1810.cif
_audit_creation_date              2013-03-05T16:10:20-0500
_audit_creation_method            fapswitch 2.2
_symmetry_space_group_name_H-M    P1
_symmetry_Int_Tables_number       1
_space_group_crystal_system       triclinic
_cell_length_a                    12.747826
_cell_length_b                    13.899282
_cell_length_c                    27.767422
_cell_angle_alpha                 89.963241
_cell_angle_beta                  93.313218
_cell_angle_gamma                 98.120967
_cell_volume                      4862.36851955

loop_
_atom_site_label
_atom_site_type_symbol
_atom_site_description
_atom_site_fract_x
_atom_site_fract_y
_atom_site_fract_z
_atom_type_partial_charge
O1    O     O_R   0.399110 0.356330 0.497030 -0.577644
O2    O     O_R   0.600890 0.643670 0.502970 -0.586035
O3    O     O_R   0.575890 0.366530 0.502210 -0.557711
O4    O     O_R   0.424110 0.633470 0.497790 -0.551721
C1    C     C_R   0.483423 0.315821 0.499425 0.816128
C2    C     C_R   0.516597 0.684181 0.500559 0.815680
O5    O     O_R   0.411620 0.494910 0.427670 -0.584919
O6    O     O_R   0.588380 0.505090 0.572330 -0.529843
O7    O     O_R   0.588400 0.505120 0.432860 -0.530173
O8    O     O_R   0.411600 0.494880 0.567140 -0.580076
C3    C     C_R   0.500157 0.499610 0.407229 0.843317
C4    C     C_R   0.500005 0.501271 0.592828 0.844573
Cu1   Cu    Cu3+1 0.395330 0.493960 0.496930 1.006480
Cu2   Cu    Cu3+1 0.604670 0.506040 0.503070 1.035905
C5    C     C_R   0.468678 0.415848 0.176708 0.642456
C6    C     C_R   0.509602 0.587065 0.823354 0.645309
O9    O     O_2   0.458832 0.331674 0.201412 -0.515642
O10   O     O_2   0.518380 0.671484 0.798849 -0.515207
N1    N     N_R   0.484347 0.502500 0.200998 -0.444427
N2    N     N_R   0.497470 0.500786 0.798867 -0.443678
C7    C     C_R   0.488837 0.589203 0.177227 0.570076
C8    C     C_R   0.490634 0.413755 0.822392 0.572396
C9    C     C_R   0.407775 0.529886 0.277697 -0.170205
C10   C     C_R   0.404807 0.474387 0.719013 -0.163801
C11   C     C_R   0.411969 0.529159 0.327814 -0.269788
C12   C     C_R   0.405674 0.474746 0.668851 -0.266794
C13   C     C_R   0.582777 0.469759 0.329210 0.352326
C14   C     C_R   0.594966 0.534588 0.674515 0.358942
C15   C     C_R   0.580261 0.474503 0.278497 0.439538
C16   C     C_R   0.594532 0.529761 0.725060 0.435058
C17   C     C_R   0.491141 0.502423 0.252806 0.189105
C18   C     C_R   0.498718 0.501883 0.747210 0.192238
C19   C     C_R   0.471729 0.502394 0.100907 -0.093306
C20   C     C_R   0.502387 0.499698 0.898930 -0.092336
C21   C     C_R   0.463133 0.414110 0.126277 -0.097039
C22   C     C_R   0.512143 0.588234 0.873727 -0.098404
C23   C     C_R   0.443434 0.326118 0.100719 -0.196071
C24   C     C_R   0.530482 0.676074 0.899409 -0.195333
C25   C     C_R   0.476363 0.591334 0.126234 -0.110143
C26   C     C_R   0.498601 0.410882 0.873498 -0.108274
C27   C     C_R   0.499273 0.499904 0.354129 -0.203435
C28   C     C_R   0.500447 0.503630 0.646020 -0.205507
H1    H     H_    0.425846 0.257748 0.119372 0.213987
H2    H     H_    0.548777 0.744568 0.880936 0.215078
C29   C     C_R   0.493484 0.412554 0.975374 -0.036817
C30   C     C_R   0.478285 0.589131 0.024408 -0.037007
C31   C     C_R   0.498245 0.589825 0.974625 -0.022760
C32   C     C_R   0.473743 0.411959 0.025206 -0.022326
C33   C     C_R   0.496535 0.500442 0.949690 -0.016024
C34   C     C_R   0.475857 0.501371 0.050099 -0.016166
C35   C     C_R   0.520773 0.330793 0.951071 0.180958
C36   C     C_R   0.450753 0.670751 0.048761 0.180279
C37   C     C_R   0.510950 0.325441 0.900272 0.145950
C38   C     C_R   0.461503 0.676278 0.099559 0.148375
O11   O     O_2   0.476254 0.331367 0.795954 -0.504861
O12   O     O_2   0.507796 0.672132 0.203236 -0.504649
C39   C     C_R   0.441257 0.325012 0.050493 0.487455
C40   C     C_R   0.531151 0.676929 0.949566 0.486590
H3    H     H_    0.332115 0.451640 0.647899 0.203011
H4    H     H_    0.346619 0.551873 0.346050 0.200953
H5    H     H_    0.331076 0.452256 0.736092 0.181996
H6    H     H_    0.339303 0.551764 0.258005 0.181727
C41   C     C_1   0.526458 0.787478 0.500877 -0.150500
C42   C     C_1   0.473641 0.212527 0.499088 -0.153082
C43   C     C_2   0.545201 0.979835 0.501353 0.411809
C44   C     C_2   0.455016 0.020177 0.498617 0.413415
C45   C     C_1   0.464649 0.125445 0.498831 -0.046646
C46   C     C_1   0.535536 0.874564 0.501129 -0.043433
N3    N     N_1   0.238040 0.484880 0.492320 -0.149697
N4    N     N_1   0.761960 0.515120 0.507680 -0.140212
C47   C     C_2   0.028412 0.474455 0.485879 0.022267
C48   C     C_2   0.971602 0.525725 0.514229 0.016913
C49   C     C_1   0.854542 0.518966 0.510044 0.274147
C50   C     C_1   0.145466 0.481136 0.490017 0.255261
O13   O     O_3   0.668291 0.437795 0.354055 -0.548728
C51   C     C_3   0.645487 0.336159 0.359231 -0.156108
H7    H     H_    0.635293 0.298557 0.323533 0.185701
H8    H     H_    0.573924 0.315639 0.380191 0.116752
H9    H     H_    0.713348 0.310169 0.379555 0.207425
O14   O     O_3   0.689331 0.565712 0.653396 -0.551584
C52   C     C_3   0.699263 0.667461 0.648155 -0.180959
H10   H     H_    0.704034 0.704829 0.683817 0.188585
H11   H     H_    0.632819 0.689147 0.624704 0.124107
H12   H     H_    0.774055 0.692393 0.630475 0.190800
I1    I     I_    0.049708 0.622060 0.568380 -0.335410
I2    I     I_    0.950277 0.378153 0.431754 -0.340098
O15   O     O_3   0.661781 0.445535 0.253910 -0.551160
C53   C     C_3   0.739530 0.527023 0.248643 -0.221666
H13   H     H_    0.773972 0.556320 0.284315 0.185319
H14   H     H_    0.707016 0.584938 0.227210 0.164231
H15   H     H_    0.804964 0.504137 0.228759 0.193824
O16   O     O_3   0.686838 0.558545 0.753054 -0.559630
C54   C     C_3   0.742225 0.478068 0.759082 -0.228070
H16   H     H_    0.766511 0.452602 0.723960 0.191048
H17   H     H_    0.694524 0.417342 0.777648 0.168263
H18   H     H_    0.815543 0.500667 0.782140 0.192948
I3    I     I_    0.524650 0.187675 0.867745 -0.162847
I4    I     I_    0.443794 0.812557 0.132579 -0.158960
I5    I     I_    0.621837 0.239528 0.988448 -0.204720
I6    I     I_    0.349538 0.761888 0.011405 -0.205573
O17   O     O_3   0.403447 0.238552 0.026746 -0.548825
C55   C     C_3   0.295643 0.239210 0.012391 -0.240496
H19   H     H_    0.285372 0.298595 0.986368 0.151760
H20   H     H_    0.247357 0.245311 0.044122 0.158592
H21   H     H_    0.264943 0.169365 0.993859 0.214469
O18   O     O_3   0.568412 0.763277 0.973525 -0.549220
C56   C     C_3   0.676146 0.762855 0.988103 -0.239517
H22   H     H_    0.724854 0.757124 0.956481 0.160899
H23   H     H_    0.686326 0.703335 0.014056 0.150999
H24   H     H_    0.706413 0.832625 0.006792 0.213755
O19   O     O_3   0.357289 0.959294 0.495721 -0.589927
C57   C     C_3   0.269502 0.010972 0.493383 -0.246938
H25   H     H_    0.268831 0.056396 0.460394 0.165088
H26   H     H_    0.268471 0.055922 0.526443 0.167042
H27   H     H_    0.195706 0.957867 0.491292 0.201296
O20   O     O_3   0.642936 0.040703 0.504233 -0.592584
C58   C     C_3   0.730700 0.988996 0.506963 -0.258903
H28   H     H_    0.732147 0.943790 0.474025 0.167150
H29   H     H_    0.730923 0.943819 0.540049 0.162009
H30   H     H_    0.804508 0.042084 0.509151 0.201853

loop_
_geom_bond_atom_site_label_1
_geom_bond_atom_site_label_2
_geom_bond_distance
_ccdc_geom_bond_type
O15   C53   1.409232 S    
C10   H5    1.082862 S    
C13   C15   1.408386 A    
C56   H23   1.113272 S    
O19   C57   1.411095 S    
C51   H9    1.108577 S    
O7    Cu2   1.948451 S    
N1    C17   1.436200 S    
C57   H26   1.112510 S    
C52   H10   1.113028 S    
C32   C39   1.419916 A    
C31   C33   1.419514 A    
C5    N1    1.364864 A    
C54   H16   1.112898 S    
O1    C1    1.280362 A    
N1    C7    1.369335 A    
C51   H8    1.113546 S    
C58   H29   1.112557 S    
C25   C38   1.422791 A    
O18   C56   1.409974 S    
C29   C35   1.416928 A    
C30   C36   1.417167 A    
O20   C58   1.411117 S    
C55   H21   1.109251 S    
C14   C28   1.416608 A    
O4    Cu1   1.921794 S    
C4    C28   1.477040 S    
C19   C21   1.408491 A    
C24   C40   1.392309 A    
C9    H6    1.083041 S    
C56   H22   1.113534 S    
C11   H4    1.083209 S    
C44   O19   1.401876 S    
C12   H3    1.083062 S    
C6    N2    1.364131 A    
C32   C34   1.418605 A    
C44   C45   1.450895 S    
O2    Cu2   1.920353 S    
C54   H17   1.112944 S    
Cu1   Cu2   2.645694 S    
Cu2   N4    1.987867 S    
O2    C2    1.280153 A    
C13   O13   1.382453 S    
C5    C21   1.398101 A    
C57   H25   1.112490 S    
C52   H11   1.113754 S    
O17   C55   1.409900 S    
C36   C38   1.410340 A    
C48   I1    2.120863 S    
C35   I5    2.156764 S    
C42   C45   1.199553 T    
C51   H7    1.113166 S    
O4    C2    1.283582 A    
C58   H30   1.109390 S    
C11   C27   1.404075 A    
C48   C49   1.479712 S    
C37   I3    2.151229 S    
C19   C34   1.414982 A    
C36   I6    2.156567 S    
C1    C42   1.423435 S    
C40   O18   1.382778 S    
C9    C17   1.397372 A    
C2    C41   1.423437 S    
C23   H1    1.083611 S    
O5    C3    1.285872 A    
O13   C51   1.410431 S    
C10   C18   1.398230 A    
C24   H2    1.083655 S    
C47   C50   1.479685 S    
C47   I2    2.120245 S    
C13   C27   1.413854 A    
C7    C25   1.416444 A    
C53   H15   1.109174 S    
C29   C33   1.411043 A    
O6    C4    1.285758 A    
C43   C46   1.450905 S    
C8    C26   1.417797 A    
N4    C49   1.171881 T    
N3    C50   1.171928 T    
C19   C25   1.414902 A    
C55   H20   1.113527 S    
O7    C3    1.288790 A    
O3    Cu2   1.921794 S    
O8    C4    1.290601 A    
C16   O16   1.382246 S    
C53   H14   1.113159 S    
C26   C37   1.423375 A    
C54   H18   1.109182 S    
C56   H24   1.109224 S    
C20   C26   1.416077 A    
O1    Cu1   1.920352 S    
C52   H12   1.109367 S    
C12   C28   1.404950 A    
N2    C18   1.435422 S    
C29   C32   1.420456 A    
C5    O9    1.350004 S    
C30   C34   1.410144 A    
C30   C31   1.419756 A    
C20   C33   1.415881 A    
O6    Cu2   1.946084 S    
C21   C23   1.398648 A    
C10   C12   1.393566 A    
N2    C8    1.368714 A    
O14   C52   1.410169 S    
O3    C1    1.283366 A    
O8    Cu1   1.948457 S    
C7    O12   1.345666 S    
C8    O11   1.345368 S    
C39   O17   1.382712 S    
C41   C46   1.199554 T    
C22   C24   1.398234 A    
C47   C48   1.365421 D    
C15   C17   1.407383 A    
C58   H28   1.112494 S    
C6    C22   1.397279 A    
C31   C40   1.419538 A    
C16   C18   1.404682 A    
Cu1   N3    1.987870 S    
C14   C16   1.405357 A    
O16   C54   1.409603 S    
C43   O20   1.401860 S    
C3    C27   1.473838 S    
C20   C22   1.408996 A    
C9    C11   1.389638 A    
C55   H19   1.113294 S    
C14   O14   1.382863 S    
C15   O15   1.381579 S    
O5    Cu1   1.946084 S    
C53   H13   1.113305 S    
C6    O10   1.350171 S    
C43   C44   1.346813 D    
C38   I4    2.150945 S    
C35   C37   1.409949 A    
C57   H27   1.109393 S    
C23   C39   1.393361 A    
