data_mof_unit_pretest_1345.cif
_audit_creation_date              2012-10-26T18:34:22-0400
_audit_creation_method            fapswitch 2.2
_symmetry_space_group_name_H-M    P1
_symmetry_Int_Tables_number       1
_space_group_crystal_system       triclinic
_cell_length_a                    10.777711
_cell_length_b                    9.53696
_cell_length_c                    9.078189
_cell_angle_alpha                 90.072677
_cell_angle_beta                  90.185998
_cell_angle_gamma                 90.009701
_cell_volume                      933.110488211

loop_
_atom_site_label
_atom_site_type_symbol
_atom_type_description
_atom_site_fract_x
_atom_site_fract_y
_atom_site_fract_z
_atom_type_partial_charge
C1    C     C_R   0.262451 0.499989 0.499923 0.620863
C2    C     C_R   0.064339 0.564110 0.383176 0.211413
C3    C     C_R   0.871394 0.500031 0.500054 -0.046768
C4    C     C_R   0.128606 0.499969 0.499946 -0.046768
C5    C     C_R   0.421489 0.074222 0.410093 0.045196
C6    C     C_R   0.578511 0.925777 0.589907 0.045196
C7    C     C_R   0.578504 0.074471 0.589917 0.046340
C8    C     C_R   0.421496 0.925529 0.410083 0.046340
C9    C     C_R   0.737549 0.500011 0.500077 0.620863
C10   C     C_R   0.499940 0.499948 0.220631 0.593667
C11   C     C_R   0.500060 0.500051 0.779369 0.593667
C12   C     C_1   0.499977 0.499930 0.065537 0.038616
C13   C     C_1   0.500023 0.500070 0.934463 0.038616
C14   C     C_R   0.064992 0.435857 0.616770 0.218076
C15   C     C_R   0.935008 0.564143 0.383230 0.218076
C16   C     C_R   0.935661 0.435890 0.616824 0.211413
Cl1   Cl    Cl    0.146973 0.360531 0.766380 -0.443973
Cl2   Cl    Cl    0.853027 0.639470 0.233620 -0.443972
Cl3   Cl    Cl    0.854521 0.360623 0.766506 -0.474427
Cl4   Cl    Cl    0.145479 0.639377 0.233495 -0.474427
Cu1   Cu    Cu3+1 0.500000 0.640660 0.500000 1.064999
Cu2   Cu    Cu3+1 0.500000 0.359340 0.500000 1.064999
H1    H     H_    0.358549 0.130027 0.337978 0.141281
H2    H     H_    0.641451 0.869973 0.662022 0.141281
H3    H     H_    0.641424 0.130465 0.662054 0.164196
H4    H     H_    0.358576 0.869535 0.337946 0.164196
N1    N     N_R   0.500000 0.852070 0.500000 -0.239521
N2    N     N_R   0.500000 0.147930 0.500000 -0.239522
O1    O     O_R   0.319640 0.618740 0.499990 -0.478765
O2    O     O_R   0.680360 0.381260 0.500010 -0.478765
O3    O     O_R   0.680360 0.618740 0.500010 -0.478042
O4    O     O_R   0.319640 0.381260 0.499990 -0.478042
O5    O     O_R   0.500000 0.618760 0.288390 -0.477576
O6    O     O_R   0.500000 0.381240 0.711610 -0.477576
O7    O     O_R   0.500000 0.618760 0.711610 -0.505576
O8    O     O_R   0.500000 0.381240 0.288390 -0.505576

loop_
_geom_bond_atom_site_label_1
_geom_bond_atom_site_label_2
_ccdc_geom_bond_type
C15   Cl2   S    
C2    C4    A    
C6    C7    A    
Cu1   O7    S    
C5    C8    A    
C5    N2    A    
C8    H4    S    
C6    N1    A    
C7    H3    S    
C1    C4    S    
C6    H2    S    
C1    O1    A    
Cu1   N1    S    
Cu2   N2    S    
Cu1   Cu2   S    
C2    C15   A    
Cu1   O3    S    
C14   Cl1   S    
Cu2   O4    S    
C9    O2    A    
C16   Cl3   S    
C3    C9    S    
C10   C12   S    
C11   O7    A    
C10   O5    A    
C1    O4    A    
C4    C14   A    
Cu2   O6    S    
C14   C16   A    
Cu1   O5    S    
C9    O3    A    
C2    Cl4   S    
C11   C13   S    
C3    C15   A    
C12   C13   T    
C8    N1    A    
C10   O8    A    
Cu2   O2    S    
Cu1   O1    S    
C3    C16   A    
C11   O6    A    
Cu2   O8    S    
C7    N2    A    
C5    H1    S    
