data_mof_unit_pretest_1507.cif
_audit_creation_date              2012-12-10T18:27:43-0500
_audit_creation_method            fapswitch 2.2
_symmetry_space_group_name_H-M    P1
_symmetry_Int_Tables_number       1
_space_group_crystal_system       triclinic
_cell_length_a                    16.127622
_cell_length_b                    17.348875
_cell_length_c                    19.340807
_cell_angle_alpha                 90.68924
_cell_angle_beta                  93.731786
_cell_angle_gamma                 97.663535
_cell_volume                      5350.60333037

loop_
_atom_site_label
_atom_site_type_symbol
_atom_type_description
_atom_site_fract_x
_atom_site_fract_y
_atom_site_fract_z
_atom_type_partial_charge
C1    C     C_R   0.488556 0.349739 0.498547 0.831140
C2    C     C_R   0.511444 0.650261 0.501452 0.831142
C3    C     C_R   0.482033 0.264994 0.494839 -0.018009
C4    C     C_R   0.517967 0.735006 0.505158 -0.018007
C5    C     C_R   0.552613 0.230064 0.480094 -0.170263
C6    C     C_R   0.447387 0.769936 0.519903 -0.170264
C7    C     C_R   0.547873 0.149730 0.477016 -0.123919
C8    C     C_R   0.452127 0.850271 0.522977 -0.123921
C9    C     C_R   0.472678 0.103021 0.489675 0.172024
C10   C     C_R   0.527322 0.896979 0.510317 0.172022
C11   C     C_R   0.401360 0.137694 0.502239 -0.143567
C12   C     C_R   0.598639 0.862306 0.497753 -0.143566
C13   C     C_R   0.405997 0.218402 0.505094 -0.120590
C14   C     C_R   0.594003 0.781598 0.494901 -0.120585
C15   C     C_2   0.467038 0.018029 0.490032 -0.201179
C16   C     C_2   0.532961 0.981971 0.509959 -0.201179
C17   C     C_R   0.746552 0.467112 0.462012 0.058743
C18   C     C_R   0.253447 0.532883 0.537991 0.058742
C19   C     C_R   0.833671 0.470891 0.461443 -0.318337
C20   C     C_R   0.166328 0.529103 0.538560 -0.318337
C21   C     C_R   0.885806 0.519130 0.509919 0.038522
C22   C     C_R   0.114194 0.480867 0.490081 0.038521
C23   C     C_R   0.499535 0.501919 0.367791 0.886446
C24   C     C_R   0.500465 0.498080 0.632209 0.886440
C25   C     C_R   0.848706 0.562387 0.557808 0.510195
C26   C     C_R   0.151295 0.437615 0.442189 0.510196
C27   C     C_R   0.761316 0.557191 0.556837 0.035265
C28   C     C_R   0.238685 0.442812 0.443160 0.035259
C29   C     C_2   0.978739 0.528026 0.510939 -0.121696
C30   C     C_2   0.021261 0.471970 0.489061 -0.121698
C31   C     C_R   0.442883 0.546364 0.252211 -0.146795
C32   C     C_R   0.557121 0.453638 0.747789 -0.146789
C33   C     C_R   0.442381 0.543211 0.179551 0.549921
C34   C     C_R   0.557620 0.456788 0.820450 0.549920
C35   C     C_R   0.497976 0.501254 0.146327 -0.219587
C36   C     C_R   0.502019 0.498738 0.853673 -0.219587
C37   C     C_R   0.553840 0.461680 0.186546 0.609266
C38   C     C_R   0.446150 0.538307 0.813453 0.609265
C39   C     C_R   0.553919 0.463658 0.258406 -0.266716
C40   C     C_R   0.446073 0.536331 0.741593 -0.266719
C41   C     C_R   0.498614 0.504893 0.291880 -0.268348
C42   C     C_R   0.501386 0.495104 0.708120 -0.268344
C43   C     C_R   0.501097 0.499736 0.929923 0.474746
C44   C     C_R   0.498897 0.500255 0.070078 0.474752
Cu1   Cu    Cu3+1 0.415410 0.495980 0.496480 0.994836
Cu2   Cu    Cu3+1 0.584590 0.504020 0.503520 0.994839
H1    H     H_    0.706641 0.430341 0.424357 0.149018
H2    H     H_    0.293358 0.569652 0.575649 0.149018
H3    H     H_    0.986950 0.417679 0.468310 0.200662
H4    H     H_    0.013050 0.582317 0.531690 0.200666
H5    H     H_    0.140569 0.562215 0.577699 0.184511
H6    H     H_    0.859430 0.437775 0.422307 0.184510
H7    H     H_    0.596595 0.431474 0.288142 0.189542
H8    H     H_    0.403394 0.568511 0.711858 0.189545
H9    H     H_    0.611531 0.264764 0.470415 0.158777
H10   H     H_    0.388470 0.735237 0.529583 0.158778
H11   H     H_    0.649343 0.755819 0.483714 0.185946
H12   H     H_    0.350656 0.244180 0.516281 0.185937
H13   H     H_    0.593509 0.015213 0.524866 0.156767
H14   H     H_    0.406491 0.984787 0.475125 0.156768
H15   H     H_    0.342641 0.102291 0.511319 0.145421
H16   H     H_    0.657357 0.897708 0.488672 0.145422
H17   H     H_    0.397063 0.875413 0.535879 0.138642
H18   H     H_    0.602937 0.124588 0.464114 0.138641
N1    N     N_R   0.569785 0.490259 0.038893 -0.126537
N2    N     N_R   0.430209 0.509731 0.961108 -0.126533
N3    N     N_R   0.570855 0.489974 0.970196 -0.119713
N4    N     N_R   0.429140 0.510016 0.029804 -0.119718
N5    N     N_R   0.711660 0.510070 0.508820 -0.250970
N6    N     N_R   0.288340 0.489930 0.491180 -0.250969
O1    O     O_R   0.420280 0.382610 0.496690 -0.574475
O2    O     O_R   0.579720 0.617390 0.503310 -0.574485
O3    O     O_R   0.563150 0.389410 0.502640 -0.579233
O4    O     O_R   0.436850 0.610590 0.497360 -0.579233
O5    O     O_R   0.428540 0.496590 0.397170 -0.566591
O6    O     O_R   0.571460 0.503410 0.602830 -0.566579
O7    O     O_R   0.571410 0.503390 0.403120 -0.593420
O8    O     O_R   0.428590 0.496610 0.596880 -0.593426
C45   C     C_2   0.388041 0.596723 0.284796 0.992211
O9    O     O_2   0.414413 0.637226 0.335771 -0.612541
O10   O     O_R   0.306674 0.599303 0.256013 -0.642157
H19   H     H_    0.275581 0.635814 0.282621 0.340773
C46   C     C_2   0.611971 0.403288 0.715205 0.992219
O11   O     O_2   0.585607 0.362784 0.664228 -0.612535
O12   O     O_R   0.693339 0.400715 0.743991 -0.642158
H20   H     H_    0.724441 0.364212 0.717381 0.340773
C47   C     C_2   0.274498 0.397082 0.391026 0.981070
O13   O     O_2   0.291456 0.332193 0.404694 -0.596447
O14   O     O_R   0.282401 0.425676 0.324217 -0.717969
H21   H     H_    0.306519 0.388740 0.292434 0.337562
C48   C     C_2   0.725504 0.602930 0.608963 0.981064
O15   O     O_2   0.708559 0.667822 0.595291 -0.596452
O16   O     O_R   0.717590 0.574342 0.675775 -0.717977
H22   H     H_    0.693478 0.611288 0.707552 0.337562
F1    F     F_    0.897309 0.609267 0.605684 -0.640081
F2    F     F_    0.102692 0.390738 0.394309 -0.640077
F3    F     F_    0.391190 0.585127 0.141396 -0.580114
F4    F     F_    0.608816 0.414876 0.858604 -0.580113
F5    F     F_    0.607266 0.419314 0.156534 -0.602752
F6    F     F_    0.392718 0.580666 0.843466 -0.602751

loop_
_geom_bond_atom_site_label_1
_geom_bond_atom_site_label_2
_ccdc_geom_bond_type
C18   N6    A    
N2    N4    A    
C47   O13   D    
C17   N5    A    
O16   H22   S    
Cu1   O1    S    
C24   C42   S    
C15   H14   S    
C34   F4    S    
Cu2   O6    S    
O10   H19   S    
C39   C41   A    
O12   H20   S    
C1    O1    A    
C19   C21   A    
C20   H5    S    
C15   C16   D    
C7    C9    A    
C32   C46   S    
Cu2   N5    S    
C17   C19   A    
C19   H6    S    
N1    N3    A    
C31   C33   A    
C27   C48   S    
Cu1   O8    S    
C22   C30   S    
Cu2   O2    S    
C3    C13   A    
C40   C42   A    
C44   N1    A    
C2    O2    A    
C29   H4    S    
C26   F2    S    
C4    C6    A    
C6    H10   S    
C48   O15   D    
C5    C7    A    
C24   O6    A    
C6    C8    A    
C13   H12   S    
C3    C5    A    
Cu1   Cu2   S    
C21   C29   S    
Cu1   O4    S    
C1    C3    S    
C16   H13   S    
C32   C34   A    
C2    C4    S    
C29   C30   D    
C48   O16   S    
C12   H16   S    
C46   O11   D    
C28   C47   S    
C23   O7    A    
C35   C44   S    
C9    C11   A    
C2    O4    A    
C10   C12   A    
C24   O8    A    
C46   O12   S    
C30   H3    S    
C12   C14   A    
C25   F1    S    
C40   H8    S    
C47   O14   S    
C44   N4    A    
C20   C22   A    
C37   F5    S    
C45   O10   S    
C27   N5    A    
C14   H11   S    
C21   C25   A    
C31   C41   A    
C35   C37   A    
Cu1   N6    S    
C5    H9    S    
C8    C10   A    
C28   N6    A    
C17   H1    S    
C23   O5    A    
C11   H15   S    
C18   H2    S    
Cu2   O7    S    
C31   C45   S    
C25   C27   A    
C26   C28   A    
C23   C41   S    
Cu1   O5    S    
C1    O3    A    
C36   C38   A    
C9    C15   S    
C37   C39   A    
C10   C16   S    
C38   C40   A    
C11   C13   A    
C38   F6    S    
C39   H7    S    
C43   N2    A    
C33   C35   A    
C34   C36   A    
C18   C20   A    
C4    C14   A    
C7    H18   S    
C8    H17   S    
C45   O9    D    
C43   N3    A    
C22   C26   A    
C32   C42   A    
C36   C43   S    
C33   F3    S    
O14   H21   S    
Cu2   O3    S    
