data_mof_unit_pretest_928.cif
_audit_creation_date              2012-10-26T19:13:09-0400
_audit_creation_method            fapswitch 2.2
_symmetry_space_group_name_H-M    P1
_symmetry_Int_Tables_number       1
_space_group_crystal_system       triclinic
_cell_length_a                    13.440565
_cell_length_b                    13.811848
_cell_length_c                    15.140167
_cell_angle_alpha                 90.008533
_cell_angle_beta                  89.946128
_cell_angle_gamma                 72.412876
_cell_volume                      2679.23294152

loop_
_atom_site_label
_atom_site_type_symbol
_atom_type_description
_atom_site_fract_x
_atom_site_fract_y
_atom_site_fract_z
_atom_type_partial_charge
C1    C     C_R   0.500027 0.500002 0.670203 0.550271
C2    C     C_R   0.815357 0.412596 0.492424 -0.020715
C3    C     C_R   0.468041 0.426785 0.904835 -0.121930
C4    C     C_R   0.700384 0.445863 0.495536 0.536806
C5    C     C_R   0.468738 0.426341 0.813030 -0.132509
C6    C     C_R   0.500058 0.500007 0.766628 0.016427
C7    C     C_R   0.531400 0.573680 0.812970 -0.130781
C8    C     C_R   0.532115 0.573263 0.904776 -0.122188
C9    C     C_R   0.500081 0.500032 0.951455 0.033648
C10   C     C_R   0.468446 0.592128 0.095257 -0.122162
C11   C     C_R   0.469121 0.592129 0.187062 -0.132881
C12   C     C_R   0.979995 0.453684 0.486545 0.020417
C13   C     C_R   0.500038 0.500009 0.233383 0.017240
C14   C     C_R   0.530992 0.407913 0.186966 -0.131543
C15   C     C_R   0.531724 0.407939 0.095164 -0.122070
C16   C     C_R   0.500016 0.499994 0.329798 0.543070
C17   C     C_R   0.500090 0.500037 0.048562 0.034206
C18   C     C_R   0.436810 0.910541 0.437392 -0.020237
C19   C     C_R   0.439829 0.807187 0.440053 0.047916
C20   C     C_R   0.558506 0.774744 0.559330 0.036974
C21   C     C_R   0.557889 0.876808 0.559933 -0.160592
C22   C     C_R   0.497402 0.946416 0.498642 0.024521
C23   C     C_R   0.872303 0.479107 0.466094 0.018195
C24   C     C_R   0.443665 0.123690 0.563700 -0.156224
C25   C     C_R   0.444279 0.225492 0.562236 0.042149
C26   C     C_R   0.556139 0.192518 0.438000 0.041085
C27   C     C_R   0.556366 0.090451 0.436454 -0.150982
C28   C     C_R   0.299808 0.554116 0.498523 0.549479
C29   C     C_R   0.499165 0.054804 0.499583 0.020605
C30   C     C_R   0.030200 0.696258 0.420392 -0.135135
C31   C     C_R   0.186833 0.584708 0.485804 -0.000583
C32   C     C_R   0.868870 0.315210 0.523755 -0.126501
C33   C     C_R   0.976980 0.284765 0.534008 -0.007717
C34   C     C_R   0.032077 0.528420 0.474455 0.031357
C35   C     C_R   0.031786 0.354117 0.516858 -0.116518
C36   C     C_3   0.367589 0.980116 0.370122 -0.264560
C37   C     C_3   0.264885 0.043929 0.412228 -0.295635
C38   C     C_3   0.195849 0.115841 0.345014 -0.454207
C39   C     C_3   0.033702 0.178405 0.564681 -0.260188
C40   C     C_3   0.010597 0.163613 0.662061 -0.293924
C41   C     C_3   0.070855 0.057049 0.693472 -0.454270
C42   C     C_R   0.979459 0.622175 0.433135 0.051459
C43   C     C_R   0.877575 0.640144 0.403319 -0.142937
C44   C     C_R   0.825087 0.569389 0.418631 -0.121831
C45   C     C_R   0.134701 0.513391 0.503250 -0.131119
C46   C     C_R   0.133824 0.677305 0.446014 -0.139429
Cu1   Cu    Cu3+1 0.500000 0.403570 0.500010 0.927386
Cu2   Cu    Cu3+1 0.500000 0.596430 0.499990 0.921797
H1    H     H_    0.173478 0.733120 0.431688 0.118023
H2    H     H_    0.606032 0.722162 0.606680 0.124793
H3    H     H_    0.837959 0.709500 0.368260 0.103752
H4    H     H_    0.605180 0.901237 0.607776 0.099175
H5    H     H_    0.398726 0.099277 0.613653 0.087131
H6    H     H_    0.399825 0.278040 0.611180 0.113105
H7    H     H_    0.600830 0.218806 0.389191 0.113034
H8    H     H_    0.600873 0.039630 0.386290 0.087954
H9    H     H_    0.990516 0.767751 0.388522 0.100737
H10   H     H_    0.176785 0.446204 0.539150 0.110873
H11   H     H_    0.826327 0.262757 0.541548 0.129774
H12   H     H_    0.443393 0.369309 0.778408 0.114312
H13   H     H_    0.115201 0.327100 0.525434 0.095698
H14   H     H_    0.748097 0.585592 0.390292 0.149062
H15   H     H_    0.441234 0.370609 0.939281 0.101879
H16   H     H_    0.236136 0.169296 0.319026 0.160091
H17   H     H_    0.176775 0.072135 0.289356 0.148224
H18   H     H_    0.121951 0.160592 0.377093 0.147234
H19   H     H_    0.222027 0.992939 0.438992 0.153450
H20   H     H_    0.280896 0.089742 0.467530 0.167309
H21   H     H_    0.409251 0.030141 0.339958 0.150760
H22   H     H_    0.349445 0.934569 0.315277 0.119523
H23   H     H_    0.556735 0.630701 0.778295 0.117165
H24   H     H_    0.048395 0.999067 0.654096 0.154000
H25   H     H_    0.156214 0.044214 0.686894 0.149010
H26   H     H_    0.052572 0.048282 0.764002 0.142496
H27   H     H_    0.033387 0.220177 0.703180 0.165444
H28   H     H_    0.925768 0.175167 0.671440 0.161161
H29   H     H_    0.009756 0.123048 0.522926 0.138293
H30   H     H_    0.119341 0.162377 0.556397 0.133660
H31   H     H_    0.558924 0.629449 0.939175 0.101802
H32   H     H_    0.441958 0.664099 0.060872 0.100974
H33   H     H_    0.444084 0.664072 0.221747 0.113295
H34   H     H_    0.556005 0.335965 0.221572 0.114306
H35   H     H_    0.558231 0.335977 0.060706 0.101041
H36   H     H_    0.393048 0.779330 0.394243 0.113099
N1    N     N_R   0.500000 0.741310 0.499980 -0.229682
N2    N     N_R   0.500060 0.258650 0.499980 -0.215866
O1    O     O_R   0.499990 0.418570 0.628550 -0.508617
O2    O     O_R   0.499990 0.581440 0.628540 -0.503529
O3    O     O_R   0.650980 0.378820 0.499990 -0.503864
O4    O     O_R   0.650980 0.541690 0.499970 -0.505637
O5    O     O_R   0.500010 0.418560 0.371460 -0.507019
O6    O     O_R   0.500010 0.581430 0.371450 -0.517031
O7    O     O_R   0.349020 0.458310 0.500030 -0.503800
O8    O     O_R   0.349020 0.621180 0.500010 -0.502236

loop_
_geom_bond_atom_site_label_1
_geom_bond_atom_site_label_2
_ccdc_geom_bond_type
C1    O1    A    
C30   H9    S    
C22   C29   S    
C27   C29   A    
C34   C42   A    
C26   H7    S    
C7    C8    A    
C11   H33   S    
C12   C23   A    
C26   C27   A    
C33   C39   S    
Cu2   O8    S    
C39   H29   S    
C2    C32   A    
C36   C37   S    
C7    H23   S    
C5    C6    A    
C10   C17   A    
C37   H20   S    
C28   O8    A    
C18   C19   A    
C24   C29   A    
C20   H2    S    
C41   H26   S    
C38   H18   S    
C8    C9    A    
C31   C46   A    
C8    H31   S    
Cu2   O2    S    
C38   H16   S    
C1    O2    A    
Cu2   O4    S    
C21   C22   A    
Cu1   O3    S    
C36   H22   S    
C4    O4    A    
C45   H10   S    
C1    C6    S    
Cu1   N2    S    
C25   H6    S    
C39   C40   S    
C10   H32   S    
C27   H8    S    
C15   H35   S    
C19   N1    A    
C24   H5    S    
C23   C44   A    
C40   H28   S    
C28   O7    A    
Cu1   O1    S    
C2    C4    S    
C43   C44   A    
C39   H30   S    
C37   C38   S    
C3    C9    A    
Cu1   Cu2   S    
C46   H1    S    
C38   H17   S    
C26   N2    A    
C20   N1    A    
C14   C15   A    
Cu1   O7    S    
C35   H13   S    
C34   C45   A    
C24   C25   A    
C12   C35   A    
C41   H24   S    
C9    C17   S    
C40   C41   S    
C16   O6    A    
Cu2   O6    S    
C42   C43   A    
C14   H34   S    
C12   C34   A    
C19   H36   S    
C36   H21   S    
C4    O3    A    
C15   C17   A    
C5    H12   S    
C18   C22   A    
Cu1   O5    S    
C30   C46   A    
C28   C31   S    
C3    C5    A    
C6    C7    A    
C3    H15   S    
C40   H27   S    
C44   H14   S    
C32   C33   A    
C11   C13   A    
C43   H3    S    
C37   H19   S    
C25   N2    A    
C33   C35   A    
C10   C11   A    
C41   H25   S    
C20   C21   A    
C16   O5    A    
C31   C45   A    
C13   C16   S    
C2    C23   A    
Cu2   N1    S    
C30   C42   A    
C32   H11   S    
C13   C14   A    
C18   C36   S    
C21   H4    S    
