data_mof_unit_pretest_1623.cif
_audit_creation_date              2012-12-10T17:05:01-0500
_audit_creation_method            fapswitch 2.2
_symmetry_space_group_name_H-M    P1
_symmetry_Int_Tables_number       1
_space_group_crystal_system       triclinic
_cell_length_a                    15.104783
_cell_length_b                    15.106094
_cell_length_c                    19.42073
_cell_angle_alpha                 89.173364
_cell_angle_beta                  90.654264
_cell_angle_gamma                 89.499942
_cell_volume                      4430.38563021

loop_
_atom_site_label
_atom_site_type_symbol
_atom_type_description
_atom_site_fract_x
_atom_site_fract_y
_atom_site_fract_z
_atom_type_partial_charge
C1    C     C_R   0.485803 0.260139 0.509602 0.887857
C2    C     C_2   0.527432 0.459252 0.019196 -0.033023
C3    C     C_2   0.488803 0.524531 0.980974 -0.283433
C4    C     C_R   0.514588 0.739513 0.488933 0.783356
C5    C     C_R   0.484934 0.517055 0.762402 0.003506
C6    C     C_R   0.483743 0.163775 0.514379 -0.035003
C7    C     C_R   0.519295 0.835081 0.481127 0.002123
C8    C     C_R   0.507914 0.963208 0.405536 -0.215850
C9    C     C_R   0.515561 0.872310 0.414832 -0.164773
C10   C     C_R   0.516618 0.889075 0.538675 -0.264340
C11   C     C_R   0.506283 0.980650 0.530048 0.182248
C12   C     C_R   0.520828 0.464020 0.094543 0.092277
C13   C     C_R   0.502603 0.019085 0.462773 0.091533
C14   C     C_R   0.490957 0.111594 0.454757 -0.093632
C15   C     C_R   0.484541 0.124329 0.580030 -0.237049
C16   C     C_R   0.260238 0.512951 0.488574 0.897689
C17   C     C_R   0.496373 0.033579 0.587878 -0.204740
C18   C     C_R   0.163948 0.520061 0.485955 -0.030365
C19   C     C_R   0.835337 0.476126 0.513916 -0.031116
C20   C     C_R   0.962847 0.380860 0.502885 -0.204039
C21   C     C_R   0.872428 0.391598 0.509635 -0.168976
C22   C     C_R   0.888877 0.550691 0.511378 -0.216809
C23   C     C_R   0.596726 0.454136 0.135821 -0.163698
C24   C     C_R   0.980371 0.541867 0.500060 0.144620
C25   C     C_R   0.018503 0.455005 0.498388 0.068670
C26   C     C_R   0.110773 0.444132 0.490803 -0.094288
C27   C     C_R   0.125974 0.604642 0.484437 -0.329670
C28   C     C_R   0.739591 0.485439 0.511497 0.796722
C29   C     C_R   0.034856 0.616890 0.490195 -0.002506
C30   C     C_R   0.489806 0.511187 0.687350 0.780280
C31   C     C_R   0.508040 0.487646 0.312562 0.871442
C32   C     C_R   0.509007 0.478404 0.237723 -0.021053
C33   C     C_R   0.431024 0.484852 0.196495 -0.017523
C34   C     C_R   0.590882 0.461671 0.206791 -0.211315
C35   C     C_R   0.438473 0.479351 0.124999 -0.249198
C36   C     C_2   0.340401 0.492535 0.224756 0.421357
C37   C     C_2   0.484896 0.153424 0.384832 0.425614
C38   C     C_2   0.151738 0.354100 0.487556 0.433820
C39   C     C_2   0.001316 0.709426 0.484392 0.384088
C40   C     C_2   0.578637 0.384094 0.989924 0.406821
C41   C     C_R   0.527060 0.589667 0.868185 -0.147521
C42   C     C_R   0.528388 0.585831 0.796691 -0.193931
C43   C     C_R   0.438017 0.453661 0.800483 -0.196382
C44   C     C_R   0.437526 0.457125 0.872041 -0.096571
C45   C     C_R   0.483770 0.524015 0.905878 0.241608
H1    H     H_    0.479578 0.164500 0.625637 0.158309
H2    H     H_    0.379464 0.484329 0.092773 0.129453
H3    H     H_    0.287383 0.520247 0.192729 0.052415
H4    H     H_    0.402855 0.406787 0.901170 0.128613
H5    H     H_    0.528108 0.131837 0.344045 0.049094
H6    H     H_    0.498187 0.004763 0.639318 0.145686
H7    H     H_    0.516801 0.830539 0.369932 0.152664
H8    H     H_    0.517516 0.859380 0.589880 0.142183
H9    H     H_    0.130803 0.301592 0.522200 0.045912
H10   H     H_    0.987550 0.313787 0.499373 0.134650
H11   H     H_    0.563975 0.636214 0.768347 0.162842
H12   H     H_    0.503507 0.988081 0.353179 0.134462
H13   H     H_    0.042192 0.763134 0.502761 0.068350
H14   H     H_    0.857436 0.614752 0.516004 0.198923
H15   H     H_    0.594256 0.326858 0.022387 0.059635
H16   H     H_    0.168348 0.662002 0.479613 0.152510
H17   H     H_    0.830916 0.333429 0.510792 0.152751
H18   H     H_    0.403551 0.400409 0.775156 0.159074
H19   H     H_    0.459989 0.581627 0.006134 0.147257
H20   H     H_    0.660818 0.442575 0.112981 0.138144
H21   H     H_    0.562053 0.642076 0.894187 0.136746
H22   H     H_    0.650910 0.455761 0.237677 0.158018
O1    O     O_3   0.500000 0.500000 0.500000 -0.498334
O2    O     O_R   0.437070 0.459640 0.654640 -0.658327
O3    O     O_R   0.556790 0.436390 0.349710 -0.636714
O4    O     O_R   0.547170 0.557950 0.655150 -0.645488
O5    O     O_R   0.458970 0.546010 0.340500 -0.613358
O6    O     O_2   0.322527 0.463962 0.281997 -0.513482
O7    O     O_2   0.430635 0.211968 0.372067 -0.521406
O8    O     O_2   0.208921 0.337789 0.445509 -0.511790
O9    O     O_2   0.931416 0.727508 0.455109 -0.568964
O10   O     O_2   0.606369 0.386077 0.931129 -0.552769
O11   O     O_R   0.306870 0.560460 0.447950 -0.618165
O12   O     O_R   0.697260 0.434930 0.470830 -0.650866
O13   O     O_R   0.434240 0.306870 0.546470 -0.632457
O14   O     O_R   0.561630 0.697750 0.534750 -0.637654
O15   O     O_R   0.542340 0.296600 0.470110 -0.636101
O16   O     O_R   0.461800 0.698790 0.448670 -0.655021
O17   O     O_R   0.296600 0.461110 0.533510 -0.640383
O18   O     O_R   0.699270 0.543500 0.547710 -0.636666
Zn1   Zn    Zn3+2 0.433070 0.575010 0.435400 1.025465
Zn2   Zn    Zn3+2 0.418400 0.433070 0.557650 1.004680
Zn3   Zn    Zn3+2 0.575700 0.573520 0.558390 0.967174
Zn4   Zn    Zn3+2 0.572830 0.418400 0.448560 1.014109

loop_
_geom_bond_atom_site_label_1
_geom_bond_atom_site_label_2
_ccdc_geom_bond_type
C44   H4    S    
C7    C10   A    
C37   O7    D    
C8    C13   A    
C40   H15   S    
C27   C29   A    
O1    Zn1   S    
C41   C42   A    
C18   C26   A    
O17   Zn2   S    
C5    C42   A    
C35   H2    S    
C17   H6    S    
C30   O4    A    
C43   H18   S    
C3    H19   S    
C12   C23   A    
O15   Zn4   S    
C19   C21   A    
O13   Zn2   S    
C4    C7    S    
C20   C25   A    
C16   O17   A    
C33   C36   S    
C7    C9    A    
C28   O12   A    
C10   H8    S    
C24   C29   A    
C27   H16   S    
C42   H11   S    
C6    C15   A    
C31   O3    A    
C4    O14   A    
C8    C9    A    
O2    Zn2   S    
O11   Zn1   S    
C5    C43   A    
C2    C12   S    
C13   C14   A    
C9    H7    S    
C20   H10   S    
C38   O8    D    
C1    C6    S    
C19   C22   A    
C24   C25   A    
C10   C11   A    
C22   H14   S    
C26   C38   S    
C1    O15   A    
C39   H13   S    
C3    C45   S    
C32   C34   A    
C43   C44   A    
C8    H12   S    
C6    C14   A    
C31   C32   S    
C38   H9    S    
C23   C34   A    
C29   C39   S    
O1    Zn4   S    
C39   O9    D    
C12   C35   A    
C19   C28   S    
C21   H17   S    
C31   O5    A    
O1    Zn3   S    
C22   C24   A    
O3    Zn4   S    
C30   O2    A    
C44   C45   A    
C5    C30   S    
O18   Zn3   S    
C15   C17   A    
C11   C17   A    
C18   C27   A    
C34   H22   S    
O5    Zn1   S    
C41   H21   S    
C32   C33   A    
C23   H20   S    
C2    C3    D    
C25   C26   A    
C14   C37   S    
C37   H5    S    
C11   C13   A    
C4    O16   A    
C33   C35   A    
C36   H3    S    
C16   O11   A    
O12   Zn4   S    
O14   Zn3   S    
C36   O6    D    
O4    Zn3   S    
C2    C40   S    
O16   Zn1   S    
C20   C21   A    
C16   C18   S    
C28   O18   A    
O1    Zn2   S    
C41   C45   A    
C40   O10   D    
C1    O13   A    
C15   H1    S    
