data_mof_unit_pretest_1987.cif
_audit_creation_date              2012-12-10T18:05:24-0500
_audit_creation_method            fapswitch 2.2
_symmetry_space_group_name_H-M    P1
_symmetry_Int_Tables_number       1
_space_group_crystal_system       triclinic
_cell_length_a                    30.67137
_cell_length_b                    30.794204
_cell_length_c                    23.511335
_cell_angle_alpha                 89.750676
_cell_angle_beta                  130.722185
_cell_angle_gamma                 89.973875
_cell_volume                      16829.557642

loop_
_atom_site_label
_atom_site_type_symbol
_atom_type_description
_atom_site_fract_x
_atom_site_fract_y
_atom_site_fract_z
_atom_type_partial_charge
C1    C     C_R   0.810051 0.809204 0.501350 0.796915
C2    C     C_R   0.191340 0.809270 0.501231 0.802958
C3    C     C_R   0.309350 0.309122 0.500044 0.801625
C4    C     C_R   0.691344 0.309271 0.501236 0.808299
C5    C     C_R   0.443255 0.749560 0.885205 0.044208
C6    C     C_R   0.555851 0.749673 0.114846 0.045190
C7    C     C_R   0.942581 0.251806 0.885573 0.045476
C8    C     C_R   0.056300 0.251854 0.114965 0.041868
C9    C     C_1   0.482893 0.751116 0.966151 0.063994
C10   C     C_1   0.516141 0.751163 0.033862 0.063890
C11   C     C_1   0.982650 0.254016 0.966408 0.064226
C12   C     C_1   0.016255 0.254012 0.034082 0.067200
C13   C     C_R   0.819539 0.867894 0.440276 -0.048923
C14   C     C_R   0.102875 0.850506 0.439384 -0.054086
C15   C     C_R   0.331405 0.353682 0.436249 -0.035937
C16   C     C_R   0.602984 0.350669 0.439285 -0.053683
C17   C     C_R   0.844983 0.841754 0.503452 -0.199752
C18   C     C_R   0.159788 0.842941 0.503533 -0.198216
C19   C     C_R   0.344638 0.341435 0.503003 -0.184380
C20   C     C_R   0.659808 0.342950 0.503548 -0.202538
C21   C     C_R   0.905510 0.844112 0.563332 0.407138
C22   C     C_R   0.186997 0.872275 0.564609 0.407997
C23   C     C_R   0.395456 0.357561 0.571889 0.409544
C24   C     C_R   0.687007 0.372205 0.564731 0.408957
C25   C     C_R   0.936784 0.876048 0.560746 -0.178330
C26   C     C_R   0.153896 0.904965 0.562028 -0.154233
C27   C     C_R   0.426949 0.389636 0.570083 -0.163596
C28   C     C_R   0.653920 0.404922 0.562139 -0.137134
C29   C     C_R   0.908952 0.905433 0.500220 -0.140499
C30   C     C_R   0.094704 0.908728 0.500298 -0.140704
C31   C     C_R   0.408469 0.406023 0.501319 -0.129812
C32   C     C_R   0.594761 0.408788 0.500290 -0.138397
C33   C     C_R   0.850758 0.899431 0.438857 0.042642
C34   C     C_R   0.070671 0.882489 0.437954 0.048924
C35   C     C_R   0.361716 0.386186 0.435037 0.027323
C36   C     C_R   0.570803 0.382676 0.437834 0.046871
C37   C     C_3   0.801351 0.930957 0.396290 -0.114696
C38   C     C_3   0.017017 0.855550 0.392201 -0.134537
C39   C     C_3   0.308656 0.404405 0.361949 -0.101111
C40   C     C_3   0.516994 0.355916 0.391523 -0.134943
C41   C     C_3   0.766861 0.896039 0.398144 0.252952
C42   C     C_3   0.052862 0.820063 0.394101 0.269267
C43   C     C_3   0.275338 0.368095 0.363320 0.220184
C44   C     C_3   0.552831 0.320376 0.393502 0.269918
C45   C     C_R   0.676891 0.749177 0.355717 0.808484
C46   C     C_R   0.322994 0.749073 0.644304 0.779000
C47   C     C_R   0.176974 0.249246 0.355719 0.788631
C48   C     C_R   0.823080 0.249005 0.644432 0.772500
C49   C     C_R   0.037607 0.738983 0.152598 0.062846
C50   C     C_R   0.962773 0.738043 0.847898 0.079089
C51   C     C_R   0.537540 0.239390 0.152628 0.062959
C52   C     C_R   0.463020 0.238640 0.847754 0.079490
C53   C     C_R   0.077085 0.737661 0.232194 0.450201
C54   C     C_R   0.923095 0.736570 0.768002 0.365348
C55   C     C_R   0.576999 0.238099 0.232226 0.454211
C56   C     C_R   0.423304 0.237218 0.767853 0.370985
C57   C     C_R   0.134307 0.751957 0.272358 -0.117575
C58   C     C_R   0.865956 0.751528 0.727692 -0.088088
C59   C     C_R   0.634411 0.251876 0.272378 -0.119284
C60   C     C_R   0.365936 0.251521 0.727663 -0.089065
C61   C     C_R   0.150804 0.768063 0.232903 -0.278423
C62   C     C_R   0.849654 0.768182 0.766958 -0.262820
C63   C     C_R   0.651173 0.267388 0.232936 -0.274664
C64   C     C_R   0.349414 0.267519 0.767014 -0.260099
C65   C     C_R   0.111878 0.769345 0.154784 -0.167764
C66   C     C_R   0.888677 0.769527 0.845004 -0.216190
C67   C     C_R   0.612270 0.268633 0.154808 -0.158874
C68   C     C_R   0.388470 0.268821 0.845071 -0.215503
C69   C     C_R   0.055614 0.754781 0.114470 0.048838
C70   C     C_R   0.944864 0.754478 0.885467 0.100809
C71   C     C_R   0.555776 0.254619 0.114487 0.046135
C72   C     C_R   0.444906 0.254391 0.885441 0.101623
C73   C     C_1   0.016751 0.755548 0.033723 -0.030609
C74   C     C_1   0.983975 0.755445 0.966192 0.024959
C75   C     C_1   0.516891 0.255387 0.033725 -0.028012
C76   C     C_1   0.484073 0.255307 0.966184 0.026558
C77   C     C_R   0.678215 0.619958 0.535235 -0.057447
C78   C     C_R   0.318267 0.624616 0.451403 -0.060508
C79   C     C_R   0.177018 0.136545 0.562251 -0.026497
C80   C     C_R   0.851207 0.117932 0.529662 0.020657
C81   C     C_R   0.654207 0.658292 0.495078 -0.168264
C82   C     C_R   0.345210 0.658410 0.502669 -0.172235
C83   C     C_R   0.155176 0.158541 0.496645 -0.233221
C84   C     C_R   0.837682 0.156967 0.490969 -0.258006
C85   C     C_R   0.594545 0.665369 0.453633 0.383169
C86   C     C_R   0.405142 0.664361 0.546911 0.385109
C87   C     C_R   0.096135 0.154146 0.432459 0.392641
C88   C     C_R   0.852733 0.162225 0.445669 0.389495
C89   C     C_R   0.689734 0.690789 0.498361 0.852994
C90   C     C_R   0.310484 0.690745 0.501937 0.859033
C91   C     C_R   0.190666 0.190830 0.499996 0.797758
C92   C     C_R   0.808325 0.190626 0.497926 0.797144
C93   C     C_R   0.561722 0.633670 0.455959 0.297615
C94   C     C_R   0.437811 0.633181 0.544095 0.292507
C95   C     C_R   0.062385 0.124034 0.433690 0.391424
C96   C     C_R   0.889510 0.131761 0.451261 0.394822
C97   C     C_R   0.589391 0.594900 0.498958 -0.224684
C98   C     C_R   0.409656 0.595927 0.498287 -0.223564
C99   C     C_R   0.088010 0.097343 0.498468 -0.298490
C100  C     C_R   0.907805 0.094454 0.497882 -0.271007
C101  C     C_R   0.647528 0.590214 0.537996 -0.018929
C102  C     C_R   0.349827 0.594140 0.449046 -0.007515
C103  C     C_R   0.144281 0.106401 0.562993 -0.004103
C104  C     C_R   0.885374 0.087216 0.532824 -0.047859
C105  C     C_3   0.697824 0.560384 0.588272 0.274879
C106  C     C_3   0.309930 0.558272 0.432358 0.255498
C107  C     C_3   0.195279 0.077188 0.615877 0.291722
C108  C     C_3   0.914429 0.075668 0.612616 0.299231
C109  C     C_3   0.733109 0.594821 0.585614 -0.454202
C110  C     C_3   0.275263 0.592212 0.435385 -0.451830
C111  C     C_3   0.231286 0.110801 0.614853 -0.484681
C112  C     C_3   0.876411 0.109709 0.608623 -0.503403
C113  C     C_R   0.440926 0.560067 0.499694 0.840264
C114  C     C_R   0.558706 0.559989 0.499860 0.825299
C115  C     C_R   0.941069 0.060201 0.499709 0.804249
C116  C     C_R   0.058201 0.060817 0.499595 0.838864
C117  C     C_R   0.940670 0.940334 0.500138 0.811414
C118  C     C_R   0.059765 0.940601 0.500147 0.841122
C119  C     C_R   0.440188 0.440694 0.500197 0.847981
C120  C     C_R   0.559790 0.440624 0.500146 0.846043
C121  C     C_R   0.822924 0.750454 0.644532 0.808559
C122  C     C_R   0.177150 0.750622 0.355494 0.844527
C123  C     C_R   0.322897 0.250435 0.644524 0.816754
C124  C     C_R   0.677182 0.250598 0.355500 0.837073
C125  C     C_R   0.422834 0.788229 0.843928 -0.240961
C126  C     C_R   0.576160 0.788361 0.155280 -0.250888
C127  C     C_R   0.927537 0.289585 0.843278 -0.244956
C128  C     C_R   0.077194 0.290144 0.156445 -0.243972
C129  C     C_R   0.384200 0.787334 0.765770 -0.200844
C130  C     C_R   0.614986 0.787485 0.233472 -0.193848
C131  C     C_R   0.888977 0.287847 0.765177 -0.200594
C132  C     C_R   0.116076 0.288508 0.234582 -0.149829
C133  C     C_R   0.365688 0.747755 0.727211 -0.079833
C134  C     C_R   0.633813 0.747918 0.272872 -0.090685
C135  C     C_R   0.865408 0.248171 0.727598 -0.093490
C136  C     C_R   0.134390 0.248563 0.272869 -0.083780
C137  C     C_R   0.388177 0.708096 0.768616 0.056510
C138  C     C_R   0.611404 0.708266 0.232350 0.052496
C139  C     C_R   0.882419 0.209112 0.770351 0.053754
C140  C     C_R   0.111792 0.209268 0.231223 0.044530
C141  C     C_R   0.425610 0.709331 0.848354 0.443376
C142  C     C_R   0.573763 0.709462 0.152581 0.445404
C143  C     C_R   0.919410 0.211603 0.849911 0.443966
C144  C     C_R   0.073871 0.211281 0.151506 0.455075
Cu1   Cu    Cu3+1 0.780910 0.719080 0.500000 1.017165
Cu2   Cu    Cu3+1 0.219090 0.719080 0.500000 1.013100
Cu3   Cu    Cu3+1 0.280910 0.219080 0.500000 1.021676
Cu4   Cu    Cu3+1 0.719090 0.219080 0.500000 1.017131
Cu5   Cu    Cu3+1 0.719070 0.780890 0.500010 1.009619
Cu6   Cu    Cu3+1 0.280930 0.780890 0.499990 1.014366
Cu7   Cu    Cu3+1 0.219070 0.280890 0.500010 0.987345
Cu8   Cu    Cu3+1 0.780930 0.280890 0.499990 0.995391
Cu9   Cu    Cu3+1 0.462710 0.500000 0.425470 0.961380
Cu10  Cu    Cu3+1 0.537290 0.500000 0.574530 0.995959
Cu11  Cu    Cu3+1 0.962710 0.000000 0.425470 0.986373
Cu12  Cu    Cu3+1 0.037290 0.000000 0.574530 1.013932
H1    H     H_    0.436393 0.819245 0.872307 0.167536
H2    H     H_    0.562397 0.819366 0.126219 0.169518
H3    H     H_    0.945261 0.320618 0.870792 0.166167
H4    H     H_    0.063753 0.321415 0.128253 0.163986
H5    H     H_    0.194310 0.779225 0.262596 0.185631
H6    H     H_    0.806225 0.779806 0.737174 0.184501
H7    H     H_    0.694861 0.278101 0.262658 0.189993
H8    H     H_    0.305791 0.278638 0.737281 0.183392
H9    H     H_    0.125864 0.781512 0.125658 0.166178
H10   H     H_    0.874854 0.782176 0.873978 0.159595
H11   H     H_    0.626443 0.280349 0.125680 0.169478
H12   H     H_    0.374485 0.280948 0.874127 0.158271
H13   H     H_    0.710640 0.555876 0.644363 0.145546
H14   H     H_    0.286449 0.544031 0.375824 0.133563
H15   H     H_    0.206771 0.073491 0.671311 0.144814
H16   H     H_    0.905587 0.041846 0.619163 0.144653
H17   H     H_    0.765620 0.611393 0.640105 0.173861
H18   H     H_    0.231951 0.598144 0.379961 0.178398
H19   H     H_    0.262863 0.127407 0.669581 0.175029
H20   H     H_    0.844506 0.095458 0.611314 0.188833
H21   H     H_    0.368122 0.817816 0.735110 0.176422
H22   H     H_    0.631013 0.817947 0.263508 0.206833
H23   H     H_    0.877019 0.317869 0.733805 0.179827
H24   H     H_    0.132535 0.318698 0.265472 0.175877
H25   H     H_    0.748662 0.584213 0.556387 0.217006
H26   H     H_    0.275922 0.588020 0.482958 0.215738
H27   H     H_    0.248856 0.099551 0.588376 0.219603
H28   H     H_    0.900190 0.138236 0.645444 0.187260
H29   H     H_    0.982590 0.878753 0.607441 0.185255
H30   H     H_    0.174236 0.926465 0.609584 0.198595
H31   H     H_    0.464816 0.402702 0.622800 0.188587
H32   H     H_    0.674235 0.426353 0.609773 0.194676
H33   H     H_    0.785773 0.939271 0.339527 0.166682
H34   H     H_    0.981725 0.869536 0.335720 0.167741
H35   H     H_    0.309485 0.402684 0.315367 0.153333
H36   H     H_    0.481955 0.370074 0.335083 0.164940
H37   H     H_    0.753913 0.904428 0.431302 0.169464
H38   H     H_    0.059211 0.790014 0.425230 0.173842
H39   H     H_    0.243586 0.379020 0.368692 0.158780
H40   H     H_    0.558886 0.290263 0.424315 0.173293
O1    O     O_R   0.821190 0.768980 0.500000 -0.567587
O2    O     O_R   0.178810 0.768980 0.500000 -0.573344
O3    O     O_R   0.321190 0.268980 0.500000 -0.560860
O4    O     O_R   0.678810 0.268980 0.500000 -0.572524
O5    O     O_R   0.486270 0.545120 0.562900 -0.568778
O6    O     O_R   0.513730 0.545120 0.437100 -0.574448
O7    O     O_R   0.986270 0.045120 0.562900 -0.544139
O8    O     O_R   0.013730 0.045120 0.437100 -0.578592
O9    O     O_R   0.923420 0.954920 0.437060 -0.596928
O10   O     O_R   0.076580 0.954920 0.562940 -0.582805
O11   O     O_R   0.423420 0.454920 0.437060 -0.604386
O12   O     O_R   0.576580 0.454920 0.562940 -0.586175
O13   O     O_R   0.986330 0.954940 0.562940 -0.582453
O14   O     O_R   0.013670 0.954940 0.437060 -0.587372
O15   O     O_R   0.486330 0.454940 0.562940 -0.587861
O16   O     O_R   0.513670 0.454940 0.437060 -0.590938
O17   O     O_R   0.768960 0.821170 0.500020 -0.584568
O18   O     O_R   0.231040 0.821170 0.499980 -0.577761
O19   O     O_R   0.268960 0.321170 0.500020 -0.583844
O20   O     O_R   0.731040 0.321170 0.499980 -0.574020
O21   O     O_R   0.721730 0.723890 0.391250 -0.578654
O22   O     O_R   0.278270 0.723890 0.608750 -0.579874
O23   O     O_R   0.221730 0.223890 0.391250 -0.569751
O24   O     O_R   0.778270 0.223890 0.608750 -0.573885
O25   O     O_R   0.669500 0.776090 0.391270 -0.564242
O26   O     O_R   0.330500 0.776090 0.608730 -0.573070
O27   O     O_R   0.169500 0.276090 0.391270 -0.585640
O28   O     O_R   0.830500 0.276090 0.608730 -0.585130
O29   O     O_R   0.731010 0.678810 0.499990 -0.601777
O30   O     O_R   0.268990 0.678810 0.500010 -0.606618
O31   O     O_R   0.231010 0.178810 0.499990 -0.589859
O32   O     O_R   0.768990 0.178810 0.500010 -0.579622
O33   O     O_R   0.678790 0.731000 0.500010 -0.537094
O34   O     O_R   0.321210 0.731000 0.499990 -0.538121
O35   O     O_R   0.178790 0.231000 0.500010 -0.574910
O36   O     O_R   0.821210 0.231000 0.499990 -0.572431
O37   O     O_R   0.830470 0.723890 0.608750 -0.526182
O38   O     O_R   0.169530 0.723890 0.391250 -0.522633
O39   O     O_R   0.330470 0.223890 0.608750 -0.522637
O40   O     O_R   0.669530 0.223890 0.391250 -0.521122
O41   O     O_R   0.778250 0.776080 0.608760 -0.604089
O42   O     O_R   0.221750 0.776080 0.391240 -0.601526
O43   O     O_R   0.278250 0.276080 0.608760 -0.598128
O44   O     O_R   0.721750 0.276080 0.391240 -0.599943
O45   O     O_R   0.423360 0.545090 0.437020 -0.592974
O46   O     O_R   0.576640 0.545090 0.562980 -0.586658
O47   O     O_R   0.923360 0.045090 0.437020 -0.585589
O48   O     O_R   0.076640 0.045090 0.562980 -0.567939
O49   O     O_3   0.720816 0.879627 0.326745 -0.738381
H41   H     H_    0.735677 0.870192 0.301770 0.328956
O50   O     O_3   0.035460 0.811183 0.323177 -0.694304
H42   H     H_    0.033919 0.838899 0.300105 0.328517
O51   O     O_3   0.252093 0.337477 0.305723 -0.729557
H43   H     H_    0.283115 0.327146 0.306373 0.335360
O52   O     O_3   0.535703 0.311657 0.322685 -0.694974
H44   H     H_    0.534441 0.339417 0.299931 0.327710
N1    N     N_3   0.979639 0.724232 0.111177 -0.608637
H45   H     H_    0.971956 0.698900 0.076197 0.231899
H46   H     H_    0.951587 0.749833 0.077542 0.233714
N2    N     N_3   0.021070 0.723124 0.891750 -0.595375
H47   H     H_    0.020784 0.690416 0.879788 0.222601
H48   H     H_    0.041454 0.741464 0.877534 0.230263
N3    N     N_3   0.479355 0.225195 0.111219 -0.608613
H49   H     H_    0.471287 0.199714 0.076249 0.233091
H50   H     H_    0.451683 0.250957 0.077574 0.232310
N4    N     N_3   0.521564 0.224371 0.891488 -0.591407
H51   H     H_    0.521839 0.191775 0.879481 0.224322
H52   H     H_    0.541561 0.243208 0.877204 0.231379
O53   O     O_3   0.061023 0.723468 0.272144 -0.682002
H53   H     H_    0.019966 0.715198 0.237533 0.363293
O54   O     O_3   0.938577 0.721755 0.727793 -0.711598
H54   H     H_    0.979234 0.712395 0.761890 0.328717
O55   O     O_3   0.560752 0.224450 0.272202 -0.680482
H55   H     H_    0.519585 0.216494 0.237600 0.363456
O56   O     O_3   0.438962 0.223126 0.727506 -0.711407
H56   H     H_    0.479734 0.214066 0.761530 0.326442
O57   O     O_3   0.569747 0.703069 0.411435 -0.708768
H57   H     H_    0.528059 0.703467 0.384406 0.377276
O58   O     O_3   0.430505 0.699968 0.593839 -0.712337
H58   H     H_    0.472397 0.699900 0.622064 0.377520
O59   O     O_3   0.069646 0.177595 0.366831 -0.667694
H59   H     H_    0.098152 0.195282 0.370277 0.302146
O60   O     O_3   0.834506 0.197174 0.397725 -0.653800
H60   H     H_    0.798300 0.208740 0.383172 0.315576
O61   O     O_3   0.504165 0.642098 0.417328 -0.727696
H61   H     H_    0.490111 0.623050 0.436312 0.325141
O62   O     O_3   0.496229 0.639774 0.587079 -0.724800
H62   H     H_    0.510311 0.622724 0.566279 0.326008
O63   O     O_3   0.005531 0.120674 0.369277 -0.635493
H63   H     H_    0.982497 0.114186 0.383858 0.336202
O64   O     O_3   0.908222 0.140561 0.412688 -0.652097
H64   H     H_    0.945148 0.125259 0.438070 0.294018
O65   O     O_3   0.691733 0.520895 0.553748 -0.707419
H65   H     H_    0.677597 0.527230 0.502658 0.339456
O66   O     O_3   0.335829 0.526611 0.489610 -0.697973
H66   H     H_    0.357272 0.541513 0.538627 0.338453
O67   O     O_3   0.191370 0.037084 0.584180 -0.702836
H67   H     H_    0.179269 0.042565 0.533948 0.335434
O68   O     O_3   0.973438 0.085922 0.664154 -0.681166
H68   H     H_    0.978567 0.115918 0.653674 0.337679
N5    N     N_3   0.376526 0.666873 0.732192 -0.585103
H69   H     H_    0.416092 0.653486 0.753810 0.225906
H70   H     H_    0.354191 0.670398 0.675027 0.235329
N6    N     N_3   0.623400 0.667097 0.269737 -0.585352
H71   H     H_    0.583963 0.653901 0.248659 0.224943
H72   H     H_    0.645912 0.670681 0.326878 0.233772
N7    N     N_3   0.865712 0.166892 0.735679 -0.587673
H73   H     H_    0.903430 0.149103 0.760595 0.220133
H74   H     H_    0.846721 0.168645 0.679517 0.231660
N8    N     N_3   0.123837 0.167599 0.267258 -0.584488
H75   H     H_    0.084614 0.154819 0.247703 0.244884
H76   H     H_    0.148422 0.170108 0.325000 0.231125
O69   O     O_3   0.446644 0.672019 0.892025 -0.697998
H77   H     H_    0.424787 0.646508 0.860133 0.349627
O70   O     O_3   0.552814 0.672133 0.109727 -0.698527
H78   H     H_    0.574840 0.646587 0.142140 0.349350
O71   O     O_3   0.934915 0.175329 0.894611 -0.695314
H79   H     H_    0.908721 0.151028 0.863528 0.349999
O72   O     O_3   0.052320 0.174395 0.107498 -0.693064
H80   H     H_    0.073769 0.148474 0.139082 0.351620
O73   O     O_3   0.935364 0.817939 0.626557 -0.703281
H81   H     H_    0.908127 0.800658 0.626398 0.336853
O74   O     O_3   0.244231 0.869205 0.628803 -0.716789
H82   H     H_    0.261262 0.842255 0.627848 0.313246
O75   O     O_3   0.414987 0.344356 0.641387 -0.708690
H83   H     H_    0.389618 0.321524 0.635384 0.322747
O76   O     O_3   0.744203 0.369035 0.629022 -0.715088
H84   H     H_    0.761257 0.342112 0.628014 0.315593
N9    N     N_3   0.812005 0.968796 0.441099 -0.594447
H85   H     H_    0.838546 0.989988 0.440950 0.231094
H86   H     H_    0.772803 0.985070 0.412962 0.232472
N10   N     N_3   0.999047 0.843085 0.434237 -0.585138
H87   H     H_    0.977799 0.869655 0.434185 0.229271
H88   H     H_    0.968183 0.818693 0.403965 0.235897
N11   N     N_3   0.292965 0.447141 0.370587 -0.538400
H89   H     H_    0.317781 0.470214 0.370341 0.249902
H90   H     H_    0.250373 0.453361 0.322430 0.215926
N12   N     N_3   0.498570 0.343391 0.433009 -0.587401
H91   H     H_    0.477268 0.369970 0.432831 0.227474
H92   H     H_    0.467645 0.319072 0.402395 0.232568

loop_
_geom_bond_atom_site_label_1
_geom_bond_atom_site_label_2
_ccdc_geom_bond_type
C99   C103  A    
Cu2   O38   S    
C133  C137  A    
C55   C59   A    
C47   C136  S    
N5    H70   S    
C48   C135  S    
C77   C101  A    
O66   H66   S    
C64   H8    S    
N7    H74   S    
C107  H15   S    
C135  C139  A    
C105  H13   S    
C118  O10   A    
C109  H17   S    
C92   O36   A    
C3    O19   A    
O56   H56   S    
C29   C33   A    
C100  C104  A    
C41   H37   S    
Cu2   Cu6   S    
C38   H34   S    
C115  O7    A    
C70   C74   S    
Cu5   O41   S    
C3    C19   S    
C113  O5    A    
Cu12  O10   S    
C16   C44   S    
C136  C140  A    
C41   O49   S    
C23   O75   S    
C49   C69   A    
O49   H41   S    
C130  C134  A    
C100  C115  S    
C51   C71   A    
C116  O8    A    
C25   C29   A    
C44   H40   S    
C27   C31   A    
O76   H84   S    
C120  O12   A    
C28   C32   A    
Cu5   O17   S    
C112  H28   S    
C99   C116  S    
C62   C66   A    
Cu4   O4    S    
Cu11  O9    S    
C98   C102  A    
Cu1   O29   S    
C17   C21   A    
C63   H7    S    
C75   C76   T    
C13   C33   A    
C52   C72   A    
C39   H35   S    
C78   C82   A    
N7    H73   S    
C40   H36   S    
C68   C72   A    
C80   C112  S    
N8    H75   S    
C139  C143  A    
C27   H31   S    
C25   H29   S    
C129  C133  A    
C122  O38   A    
C2    O18   A    
C138  N6    S    
Cu10  O5    S    
C83   C91   S    
N6    H71   S    
C67   H11   S    
C59   C124  S    
C47   O27   A    
Cu12  O13   S    
C59   C63   A    
C90   O30   A    
C84   C88   A    
N3    H50   S    
Cu6   O34   S    
C39   C43   S    
C57   C61   A    
C30   C118  S    
C21   O73   S    
C54   O54   S    
C46   O26   A    
C60   C64   A    
C86   O58   S    
C50   C70   A    
C66   C70   A    
C29   C117  S    
C53   O53   S    
C51   C55   A    
C88   O60   S    
C105  O65   S    
Cu2   O22   S    
C61   C65   A    
O75   H83   S    
Cu11  Cu12  S    
C94   C98   A    
C103  C107  S    
C120  O16   A    
C140  N8    S    
C116  O48   A    
C4    O20   A    
Cu9   O45   S    
C137  N5    S    
Cu4   O32   S    
C7    C143  A    
Cu8   O20   S    
O51   H43   S    
C64   C68   A    
N1    H45   S    
C40   N12   S    
C96   O64   S    
C43   H39   S    
N9    H86   S    
Cu12  O48   S    
C85   C93   A    
C8    C128  A    
Cu7   O35   S    
N2    H48   S    
C55   O55   S    
C9    C10   T    
C139  N7    S    
C8    C12   S    
O59   H59   S    
C106  H14   S    
C79   C103  A    
C108  O68   S    
C142  O70   S    
C123  O43   A    
C110  H18   S    
C30   C34   A    
C8    C144  A    
Cu3   O31   S    
N12   H91   S    
C48   O28   A    
C91   O35   A    
C124  O40   A    
Cu2   O2    S    
C60   C123  S    
Cu3   Cu7   S    
C5    C9    S    
O67   H67   S    
C125  C129  A    
N11   H90   S    
C43   O51   S    
C44   O52   S    
C132  C136  A    
C111  H27   S    
O65   H65   S    
C77   C109  S    
C110  H26   S    
C132  H24   S    
C68   H12   S    
C112  H20   S    
C26   C30   A    
C141  O69   S    
C108  H16   S    
C93   C97   A    
C109  H25   S    
C21   C25   A    
C114  O46   A    
C18   C22   A    
C107  C111  S    
C1    O1    A    
Cu4   Cu8   S    
N10   H87   S    
C14   C34   A    
Cu9   O16   S    
C51   N3    S    
O54   H54   S    
N4    H51   S    
C52   N4    S    
C119  O15   A    
C13   C17   A    
Cu5   O33   S    
C117  O13   A    
C15   C43   S    
C16   C36   A    
C26   H30   S    
C122  O42   A    
C96   C100  A    
Cu7   O27   S    
C37   C41   S    
Cu10  O12   S    
C49   C53   A    
C50   N2    S    
C4    O4    A    
C5    C125  A    
O62   H62   S    
C90   O34   A    
Cu7   O19   S    
C84   C92   S    
C7    C127  A    
C97   C114  S    
Cu12  O7    S    
C81   C85   A    
Cu11  O8    S    
C94   O62   S    
Cu8   O36   S    
Cu11  O47   S    
C58   C62   A    
C83   C87   A    
C88   C96   A    
C46   O22   A    
Cu1   O37   S    
C78   C102  A    
C73   C74   T    
Cu3   O3    S    
O58   H58   S    
C80   C84   A    
C13   C41   S    
O52   H44   S    
C15   C19   A    
C50   C54   A    
C80   C104  A    
C117  O9    A    
C28   H32   S    
C54   C58   A    
C124  O44   A    
C125  H1    S    
C126  C130  A    
C95   C99   A    
C65   H9    S    
C105  C109  S    
C130  H22   S    
C57   C122  S    
Cu9   O11   S    
N8    H76   S    
O60   H60   S    
C114  O6    A    
C69   C73   S    
C6    C142  A    
C81   C89   S    
O72   H80   S    
C34   C38   S    
O55   H55   S    
Cu6   O26   S    
N6    H72   S    
C24   C28   A    
C6    C126  A    
C138  C142  A    
O68   H68   S    
C53   C57   A    
C98   C113  S    
Cu2   O30   S    
C95   O63   S    
C129  H21   S    
C33   C37   S    
C56   C60   A    
C35   C39   S    
N11   H89   S    
Cu10  O15   S    
C37   N9    S    
O64   H64   S    
C77   C81   A    
O50   H42   S    
Cu4   O24   S    
C31   C119  S    
C123  O39   A    
C121  O37   A    
Cu8   O28   S    
C1    O17   A    
C61   H5    S    
C32   C36   A    
C104  C108  S    
Cu9   O6    S    
C48   O24   A    
C137  C141  A    
C58   C121  S    
C24   O76   S    
C91   O31   A    
C1    C17   S    
Cu11  O14   S    
C140  C144  A    
C89   O29   A    
C6    C10   S    
C107  O67   S    
Cu7   O43   S    
C82   C90   S    
C127  C131  A    
C45   O25   A    
C82   C86   A    
C46   C133  S    
C79   C83   A    
O71   H79   S    
C62   H6    S    
C65   C69   A    
C67   C71   A    
N9    H85   S    
O74   H82   S    
C108  C112  S    
Cu1   O21   S    
C92   O32   A    
C22   C26   A    
C56   O56   S    
Cu1   Cu5   S    
Cu3   O39   S    
C37   H33   S    
O70   H78   S    
Cu10  O46   S    
C2    C18   S    
C45   O21   A    
N5    H69   S    
C14   C18   A    
C19   C23   A    
C72   C76   S    
C93   O61   S    
O69   H77   S    
C7    C11   S    
C45   C134  S    
O63   H63   S    
C111  H19   S    
C38   C42   S    
C131  C135  A    
N12   H92   S    
C87   O59   S    
C42   H38   S    
C86   C94   A    
C20   C24   A    
C85   O57   S    
Cu6   O42   S    
C3    O3    A    
C23   C27   A    
O53   H53   S    
C16   C20   A    
C14   C42   S    
Cu5   O25   S    
C32   C120  S    
C128  C132  A    
C15   C35   A    
C126  H2    S    
C101  C105  S    
C63   C67   A    
C42   O50   S    
C66   H10   S    
C36   C40   S    
N10   H88   S    
N1    H46   S    
C131  H23   S    
N4    H52   S    
O61   H61   S    
C47   O23   A    
C87   C95   A    
Cu4   O40   S    
Cu1   O1    S    
C49   N1    S    
C5    C141  A    
Cu8   O44   S    
C40   C44   S    
N2    H47   S    
O57   H57   S    
C78   C110  S    
C143  O71   S    
C115  O47   A    
C113  O45   A    
C119  O11   A    
N3    H49   S    
C127  H3    S    
C128  H4    S    
C106  C110  S    
C22   O74   S    
C2    O2    A    
C144  O72   S    
C134  C138  A    
C11   C12   T    
C4    C20   S    
C39   N11   S    
C79   C111  S    
C118  O14   A    
C106  O66   S    
C71   C75   S    
C121  O41   A    
C102  C106  S    
C31   C35   A    
Cu6   O18   S    
O73   H81   S    
C38   N10   S    
Cu3   O23   S    
C89   O33   A    
Cu9   Cu10  S    
C97   C101  A    
C52   C56   A    
