data_mof_unit_pretest_974.cif
_audit_creation_date              2012-12-10T18:58:11-0500
_audit_creation_method            fapswitch 2.2
_symmetry_space_group_name_H-M    P1
_symmetry_Int_Tables_number       1
_space_group_crystal_system       triclinic
_cell_length_a                    11.065453
_cell_length_b                    10.823702
_cell_length_c                    9.556812
_cell_angle_alpha                 90.130634
_cell_angle_beta                  102.898184
_cell_angle_gamma                 90.201736
_cell_volume                      1115.71843954

loop_
_atom_site_label
_atom_site_type_symbol
_atom_type_description
_atom_site_fract_x
_atom_site_fract_y
_atom_site_fract_z
_atom_type_partial_charge
C1    C     C_R   0.497391 0.262372 0.499149 0.796516
C2    C     C_R   0.484714 0.129271 0.495453 -0.095901
C3    C     C_R   0.469065 0.064053 0.365175 -0.214193
C4    C     C_R   0.469570 0.935218 0.365440 -0.212640
C5    C     C_R   0.485758 0.870826 0.495985 -0.098900
C6    C     C_R   0.483963 0.936817 0.621103 0.136952
C7    C     C_3   0.570499 0.931860 0.765306 -0.478171
C8    C     C_3   0.568849 0.072049 0.765347 -0.455041
C9    C     C_R   0.554877 0.594359 0.087889 0.244984
C10   C     C_R   0.435360 0.413785 0.057464 -0.060573
C11   C     C_R   0.435304 0.413807 0.908642 -0.068556
C12   C     C_R   0.262694 0.499675 0.441357 0.807555
C13   C     C_R   0.555248 0.594069 0.940685 0.241939
C14   C     C_3   0.688549 0.630420 0.969516 -0.470609
C15   C     C_3   0.687937 0.631627 0.127968 -0.477353
C16   C     C_R   0.497971 0.737687 0.499490 0.802402
C17   C     C_R   0.737463 0.496927 0.558764 0.808168
C18   C     C_2   0.127411 0.500532 0.407303 -0.185647
C19   C     C_2   0.067407 0.468864 0.509558 -0.197615
C20   C     C_2   0.872925 0.487631 0.593262 -0.185218
C21   C     C_2   0.932117 0.474001 0.486015 -0.198684
C22   C     C_R   0.483146 0.064003 0.620776 0.118779
Cu1   Cu    Cu3+1 0.499990 0.499980 0.640670 0.948288
Cu2   Cu    Cu3+1 0.500010 0.500020 0.359330 0.949791
H1    H     H_    0.879529 0.468625 0.376079 0.176266
H2    H     H_    0.659896 0.114346 0.761929 0.203233
H3    H     H_    0.384896 0.342586 0.099909 0.136210
H4    H     H_    0.384752 0.342638 0.839762 0.135989
H5    H     H_    0.748373 0.556811 0.940425 0.237232
H6    H     H_    0.702718 0.723393 0.927237 0.189795
H7    H     H_    0.747756 0.558986 0.188442 0.219448
H8    H     H_    0.700767 0.725419 0.176783 0.194978
H9    H     H_    0.119690 0.440535 0.614698 0.185092
H10   H     H_    0.462577 0.111885 0.264351 0.160337
H11   H     H_    0.463315 0.886821 0.264724 0.165248
H12   H     H_    0.526158 0.890606 0.847892 0.197816
H13   H     H_    0.662415 0.893055 0.760604 0.194998
H14   H     H_    0.522737 0.111740 0.847263 0.193777
N1    N     N_R   0.500780 0.500930 0.148120 -0.185258
N2    N     N_R   0.500790 0.500890 0.852210 -0.184534
O1    O     O_R   0.500000 0.319640 0.618810 -0.584946
O2    O     O_R   0.500010 0.319680 0.381230 -0.589897
O3    O     O_R   0.320680 0.500000 0.575130 -0.582047
O4    O     O_R   0.320690 0.500040 0.337550 -0.570815
O5    O     O_R   0.499990 0.680320 0.618770 -0.576064
O6    O     O_R   0.500000 0.680360 0.381190 -0.584063
O7    O     O_R   0.679310 0.499960 0.662450 -0.578374
O8    O     O_R   0.679320 0.500000 0.424870 -0.584163
C23   C     C_1   0.939595 0.492524 0.741901 0.245073
N3    N     N_1   0.993465 0.495928 0.860372 -0.267437
C24   C     C_1   0.062486 0.544542 0.267789 0.261134
N4    N     N_1   0.010445 0.580721 0.156999 -0.265300

loop_
_geom_bond_atom_site_label_1
_geom_bond_atom_site_label_2
_ccdc_geom_bond_type
C16   O5    A    
C2    C22   A    
C8    C22   S    
Cu1   Cu2   S    
C15   H7    S    
C20   C23   S    
Cu1   O5    S    
Cu2   O2    S    
C7    H12   S    
Cu1   N2    S    
Cu1   O1    S    
C17   O8    A    
Cu2   O6    S    
Cu2   N1    S    
C2    C3    A    
C7    H13   S    
C4    H11   S    
C10   H3    S    
C15   H8    S    
C12   O4    A    
C13   C14   S    
C6    C7    S    
C8    H14   S    
C11   H4    S    
C14   H6    S    
C1    O1    A    
C19   C21   S    
C18   C24   S    
C18   C19   D    
C12   O3    A    
C9    C15   S    
C5    C6    A    
Cu2   O4    S    
Cu1   O7    S    
C10   C11   A    
C14   H5    S    
C12   C18   S    
C11   N2    A    
C6    C22   A    
C17   O7    A    
C1    O2    A    
C9    N1    A    
C17   C20   S    
C8    H2    S    
C20   C21   D    
C1    C2    S    
C19   H9    S    
C16   O6    A    
C23   N3    T    
C7    C8    S    
C9    C13   A    
C14   C15   S    
C4    C5    A    
C5    C16   S    
C21   H1    S    
C3    H10   S    
Cu1   O3    S    
C3    C4    A    
C24   N4    T    
C10   N1    A    
C13   N2    A    
Cu2   O8    S    
