data_mof_unit_pretest_1157.cif
_audit_creation_date              2013-03-05T16:10:40-0500
_audit_creation_method            fapswitch 2.2
_symmetry_space_group_name_H-M    P1
_symmetry_Int_Tables_number       1
_space_group_crystal_system       triclinic
_cell_length_a                    9.920674
_cell_length_b                    10.643468
_cell_length_c                    15.502875
_cell_angle_alpha                 90.454165
_cell_angle_beta                  67.836046
_cell_angle_gamma                 87.853412
_cell_volume                      1514.50258137

loop_
_atom_site_label
_atom_site_type_symbol
_atom_site_description
_atom_site_fract_x
_atom_site_fract_y
_atom_site_fract_z
_atom_type_partial_charge
O1    O     O_R   0.385370 0.683250 0.500010 -0.645889
O2    O     O_R   0.614630 0.316750 0.499990 -0.645901
O3    O     O_R   0.614700 0.683220 0.500000 -0.623162
O4    O     O_R   0.385300 0.316780 0.500000 -0.623159
C1    C     C_R   0.497482 0.739838 0.501331 0.867026
C2    C     C_R   0.502517 0.260162 0.498669 0.867023
O5    O     O_R   0.319830 0.500020 0.632250 -0.622927
O6    O     O_R   0.680170 0.499980 0.367750 -0.622925
O7    O     O_R   0.549160 0.499990 0.632240 -0.591195
O8    O     O_R   0.450840 0.500010 0.367760 -0.591194
C3    C     C_R   0.408976 0.499155 0.675783 0.886944
C4    C     C_R   0.591024 0.500846 0.324216 0.886940
Zn1   Zn    Zn3+2 0.346870 0.500020 0.500000 0.947117
Zn2   Zn    Zn3+2 0.653130 0.499980 0.500000 0.947113
C5    C     C_R   0.354013 0.484429 0.776334 -0.107203
C6    C     C_R   0.645989 0.515574 0.223665 -0.107200
C7    C     C_R   0.187760 0.391815 0.916878 0.182335
C8    C     C_R   0.812243 0.608192 0.083122 0.182334
C9    C     C_R   0.228779 0.419941 0.822637 -0.228770
C10   C     C_R   0.771224 0.580062 0.177363 -0.228760
C11   C     C_R   0.441377 0.519277 0.823005 -0.169476
C12   C     C_R   0.558627 0.480728 0.176993 -0.169476
C13   C     C_R   0.416042 0.478958 0.912708 0.068113
C14   C     C_R   0.583964 0.521049 0.087290 0.068114
C15   C     C_R   0.279671 0.426227 0.965799 0.064828
C16   C     C_R   0.720335 0.573780 0.034200 0.064823
C17   C     C_R   0.522080 0.498617 0.951559 -0.018111
C18   C     C_R   0.477926 0.501392 0.048439 -0.018110
C19   C     C_R   0.329633 0.481820 0.103618 0.092916
C20   C     C_R   0.670373 0.518190 0.896379 0.092920
C21   C     C_R   0.241009 0.421681 0.064245 0.131337
C22   C     C_R   0.758998 0.578327 0.935753 0.131346
H1    H     H_    0.467250 0.422996 0.212478 0.168869
H2    H     H_    0.532754 0.577009 0.787519 0.168869
H3    H     H_    0.837115 0.609473 0.215340 0.198441
H4    H     H_    0.162887 0.390529 0.784662 0.198441
C23   C     C_R   0.576885 0.933379 0.545393 -0.170615
C24   C     C_R   0.423115 0.066619 0.454604 -0.170609
H5    H     H_    0.635987 0.881752 0.581030 0.144159
H6    H     H_    0.364017 0.118246 0.418964 0.144155
C25   C     C_R   0.582223 0.061809 0.542499 -0.188034
C26   C     C_R   0.417774 0.938190 0.457500 -0.188043
H7    H     H_    0.642911 0.109587 0.577234 0.155861
H8    H     H_    0.357085 0.890410 0.422766 0.155865
C27   C     C_R   0.505193 0.127521 0.497222 -0.012817
C28   C     C_R   0.494804 0.872478 0.502778 -0.012820
C29   C     C_R   0.957801 0.400550 0.460531 0.206490
C30   C     C_R   0.042196 0.599450 0.539473 0.206503
C31   C     C_R   0.100673 0.402237 0.461627 -0.041301
C32   C     C_R   0.899326 0.597763 0.538373 -0.041296
H9    H     H_    0.179722 0.325736 0.432447 0.158782
H10   H     H_    0.820273 0.674261 0.567554 0.158787
N1    N     N_R   0.142780 0.500030 0.500020 -0.121577
N2    N     N_R   0.857220 0.499970 0.499980 -0.121581
C33   C     C_3   0.111847 0.353712 0.129436 -0.383065
C34   C     C_3   0.141477 0.211125 0.117987 -0.785606
H11   H     H_    0.181058 0.179630 0.043925 0.285429
H12   H     H_    0.226689 0.182611 0.145063 0.249161
H13   H     H_    0.040179 0.162621 0.157648 0.267302
H14   H     H_    0.089844 0.376200 0.203291 0.227190
H15   H     H_    0.010117 0.385586 0.121723 0.244703
C35   C     C_3   0.888162 0.646294 0.870562 -0.383066
C36   C     C_3   0.858531 0.788882 0.882011 -0.785607
H16   H     H_    0.773318 0.817394 0.854937 0.249162
H17   H     H_    0.818947 0.820377 0.956073 0.285428
H18   H     H_    0.959827 0.837387 0.842350 0.267302
H19   H     H_    0.989889 0.614421 0.878279 0.244701
H20   H     H_    0.910173 0.623808 0.796705 0.227189
I1    I     I_    0.986409 0.297661 0.963685 -0.404072
I2    I     I_    0.013589 0.702352 0.036319 -0.404068
I3    I     I_    0.223676 0.586019 0.233211 -0.405014
I4    I     I_    0.776331 0.413992 0.766786 -0.405026
C37   C     C_3   0.914995 0.286317 0.419353 -0.345516
C38   C     C_3   0.038390 0.192432 0.362938 -0.982861
H21   H     H_    0.127999 0.240850 0.309522 0.272182
H22   H     H_    0.081661 0.140651 0.409624 0.264601
H23   H     H_    0.995566 0.122246 0.327545 0.281636
H24   H     H_    0.842019 0.232437 0.477975 0.236601
H25   H     H_    0.859184 0.318381 0.372976 0.245193
C39   C     C_3   0.084987 0.713673 0.580674 -0.345489
C40   C     C_3   0.961583 0.807568 0.637068 -0.982885
H26   H     H_    0.918334 0.859340 0.590366 0.264601
H27   H     H_    0.871963 0.759161 0.690483 0.272182
H28   H     H_    0.004396 0.877763 0.672460 0.281638
H29   H     H_    0.140749 0.681590 0.627078 0.245150
H30   H     H_    0.157995 0.767561 0.522066 0.236620

loop_
_geom_bond_atom_site_label_1
_geom_bond_atom_site_label_2
_geom_bond_distance
_ccdc_geom_bond_type
C8    I2    2.142139 S    
C20   C22   1.412870 A    
C33   C34   1.531028 S    
C36   H17   1.108482 S    
C16   C22   1.428157 A    
C2    C27   1.410856 S    
C37   C38   1.532548 S    
C8    C16   1.443303 A    
C40   H26   1.111271 S    
C29   C31   1.424664 A    
O5    C3    1.299053 A    
C35   C36   1.531029 S    
C38   H22   1.111264 S    
C35   H19   1.101813 S    
O1    C1    1.291281 A    
C18   C19   1.419758 A    
C14   C16   1.430659 A    
C24   C26   1.370382 A    
C9    H4    1.083835 S    
C34   H11   1.108481 S    
C26   C28   1.392240 A    
O4    Zn1   1.973159 S    
C24   C27   1.399432 A    
C39   H30   1.105419 S    
C10   H3    1.083835 S    
C3    C5    1.456284 S    
C4    C6    1.456293 S    
C31   H9    1.077621 S    
C38   H23   1.110300 S    
C32   H10   1.077622 S    
C37   H24   1.105379 S    
C13   C17   1.416246 A    
C6    C10   1.388798 A    
C30   C32   1.424663 A    
C36   H18   1.110024 S    
C33   H14   1.104091 S    
C17   C20   1.419762 A    
C25   H7    1.083640 S    
O2    C2    1.291285 A    
C26   H8    1.083646 S    
C40   H27   1.107810 S    
Zn1   N1    2.024590 S    
C30   N1    1.392730 A    
C38   H21   1.107806 S    
C29   C37   1.515598 S    
O4    C2    1.282595 A    
C11   H2    1.082961 S    
C6    C12   1.380301 A    
C5    C9    1.388799 A    
O7    Zn2   1.916064 S    
C39   H29   1.109137 S    
C5    C11   1.380303 A    
O6    C4    1.299052 A    
C37   H25   1.109074 S    
C32   N2    1.349997 A    
O7    C3    1.297130 A    
O3    Zn2   1.973159 S    
O8    C4    1.297135 A    
C29   N2    1.392708 A    
Zn2   N2    2.024589 S    
C11   C13   1.391064 A    
C12   C14   1.391066 A    
O1    Zn1   2.001253 S    
C40   H28   1.110289 S    
C12   H1    1.082960 S    
C7    I1    2.142142 S    
O6    Zn2   1.964825 S    
C15   C21   1.428149 A    
C14   C18   1.416242 A    
C39   C40   1.532575 S    
O3    C1    1.282596 A    
O8    Zn1   1.916067 S    
C20   I4    2.157586 S    
C1    C28   1.410850 S    
C34   H13   1.110027 S    
C35   H20   1.104109 S    
C7    C15   1.443302 A    
C30   C39   1.515628 S    
C22   C35   1.513480 S    
C23   H5    1.084450 S    
C24   H6    1.084457 S    
C31   N1    1.350002 A    
C33   H15   1.101815 S    
C7    C9    1.399007 A    
C34   H12   1.110611 S    
C8    C10   1.399014 A    
C13   C15   1.430662 A    
C23   C25   1.370380 A    
O2    Zn2   2.001253 S    
C36   H16   1.110599 S    
O5    Zn1   1.964823 S    
C19   C21   1.412868 A    
C17   C18   1.396582 A    
C25   C27   1.392230 A    
C21   C33   1.513469 S    
C23   C28   1.399416 A    
C19   I3    2.157589 S    
