data_mof_unit_pretest_1789.cif
_audit_creation_date              2012-12-10T19:01:18-0500
_audit_creation_method            fapswitch 2.2
_symmetry_space_group_name_H-M    P1
_symmetry_Int_Tables_number       1
_space_group_crystal_system       triclinic
_cell_length_a                    15.835097
_cell_length_b                    14.259398
_cell_length_c                    13.379497
_cell_angle_alpha                 89.99477
_cell_angle_beta                  90.026071
_cell_angle_gamma                 89.988383
_cell_volume                      3021.07599324

loop_
_atom_site_label
_atom_site_type_symbol
_atom_type_description
_atom_site_fract_x
_atom_site_fract_y
_atom_site_fract_z
_atom_type_partial_charge
C1    C     C_R   0.499997 0.326562 0.500004 0.915870
C2    C     C_1   0.500002 0.499977 0.950478 -0.057893
C3    C     C_R   0.335908 0.498156 0.499970 0.926023
C4    C     C_R   0.664087 0.498121 0.500027 0.922506
C5    C     C_R   0.500011 0.673452 0.499996 0.929448
C6    C     C_3   0.048804 0.485668 0.604851 0.222313
C7    C     C_3   0.048305 0.439869 0.425439 0.301609
C8    C     C_3   0.951059 0.478227 0.602808 0.268937
C9    C     C_3   0.950697 0.451078 0.416423 0.228375
C10   C     C_1   0.752142 0.504990 0.500170 -0.247307
C11   C     C_1   0.247843 0.505076 0.499820 -0.251819
C12   C     C_1   0.500019 0.141343 0.500010 -0.016969
C13   C     C_3   0.082386 0.517598 0.498993 -0.226552
C14   C     C_3   0.917755 0.517876 0.501289 -0.205539
C15   C     C_3   0.949299 0.622871 0.484397 0.885901
C16   C     C_3   0.047906 0.618121 0.460681 0.817781
C17   C     C_1   0.826738 0.511653 0.500727 0.106409
C18   C     C_1   0.173236 0.511736 0.499349 0.071611
C19   C     C_1   0.500007 0.225909 0.500009 -0.236420
C20   C     C_3   0.127798 0.361093 0.303653 -0.292224
C21   C     C_3   0.108415 0.494758 0.764735 -0.255914
C22   C     C_3   0.890400 0.418535 0.260744 -0.173508
C23   C     C_1   0.500034 0.042282 0.500004 -0.000608
C24   C     C_3   0.866927 0.466420 0.746172 -0.288863
C25   C     C_3   0.120052 0.708523 0.592499 -0.216785
C26   C     C_3   0.129147 0.656532 0.314642 -0.093061
C27   C     C_3   0.852076 0.707330 0.590036 -0.218217
C28   C     C_3   0.923135 0.757379 0.381898 -0.215145
C29   C     C_1   0.500041 0.957722 0.499993 0.000299
C30   C     C_1   0.500040 0.858663 0.499988 -0.014471
C31   C     C_1   0.500030 0.774099 0.499990 -0.235209
C32   C     C_1   0.499999 0.499977 0.169445 0.062295
C33   C     C_1   0.500002 0.499978 0.830555 0.055722
C34   C     C_1   0.500001 0.499977 0.049522 -0.056812
H1    H     H_    0.935472 0.401500 0.604158 -0.000097
H2    H     H_    0.123427 0.544651 0.825786 0.181629
H3    H     H_    0.829054 0.395558 0.292969 0.126595
H4    H     H_    0.933279 0.357508 0.250472 0.135280
H5    H     H_    0.877625 0.449001 0.185975 0.174983
H6    H     H_    0.906797 0.409666 0.778194 0.141833
H7    H     H_    0.813111 0.436105 0.703630 0.151777
H8    H     H_    0.840485 0.507563 0.809149 0.185445
H9    H     H_    0.068987 0.707240 0.648732 0.261807
H10   H     H_    0.149846 0.778421 0.601109 0.152492
H11   H     H_    0.171431 0.657972 0.607148 0.193151
H12   H     H_    0.922645 0.379968 0.430013 0.013695
H13   H     H_    0.186243 0.634103 0.356113 0.155812
H14   H     H_    0.125090 0.734295 0.313655 0.142743
H15   H     H_    0.136419 0.632621 0.236247 0.165251
H16   H     H_    0.826531 0.671676 0.657124 0.209824
H17   H     H_    0.807318 0.695933 0.527437 0.167350
H18   H     H_    0.852812 0.783632 0.606068 0.149879
H19   H     H_    0.958236 0.793722 0.442475 0.187085
H20   H     H_    0.862935 0.795721 0.370541 0.145591
H21   H     H_    0.959877 0.763059 0.311609 0.192859
H22   H     H_    0.073131 0.412656 0.617020 0.041082
H23   H     H_    0.059609 0.369658 0.460703 -0.011846
H24   H     H_    0.081820 0.302200 0.300583 0.136292
H25   H     H_    0.179735 0.344879 0.356926 0.152327
H26   H     H_    0.155987 0.369015 0.228257 0.183899
H27   H     H_    0.167869 0.458292 0.743578 0.145248
H28   H     H_    0.061331 0.443724 0.793779 0.160723
N1    N     N_1   0.500000 0.499980 0.261870 -0.064993
N2    N     N_1   0.500000 0.499980 0.738130 -0.066244
O1    O     O_R   0.500000 0.373720 0.576470 -0.598053
O2    O     O_3   0.075893 0.545730 0.682896 -0.557300
O3    O     O_3   0.928031 0.487915 0.321223 -0.465089
O4    O     O_3   0.915302 0.526890 0.685474 -0.501100
O5    O     O_3   0.089152 0.702873 0.494181 -0.672907
O6    O     O_3   0.053656 0.617840 0.353662 -0.546736
O7    O     O_3   0.936441 0.677425 0.573014 -0.618960
O8    O     O_3   0.904299 0.661699 0.400889 -0.580891
O9    O     O_R   0.500000 0.373720 0.423530 -0.599196
O10   O     O_R   0.377150 0.500010 0.576490 -0.607590
O11   O     O_R   0.377150 0.500010 0.423510 -0.606467
O12   O     O_R   0.622850 0.500010 0.576490 -0.612880
O13   O     O_R   0.622850 0.500010 0.423510 -0.597195
O14   O     O_R   0.500000 0.626290 0.576440 -0.595665
O15   O     O_R   0.500000 0.626290 0.423560 -0.593063
O16   O     O_3   0.087322 0.445781 0.329592 -0.496052
Zn1   Zn    Zn3+2 0.500000 0.500010 0.602090 0.958641
Zn2   Zn    Zn3+2 0.500000 0.500010 0.397910 0.967251

loop_
_geom_bond_atom_site_label_1
_geom_bond_atom_site_label_2
_ccdc_geom_bond_type
C11   C18   T    
C21   O2    S    
C24   H8    S    
C25   H9    S    
C21   H2    S    
C15   O8    S    
C12   C23   S    
C13   C18   S    
C23   C29   T    
C30   C31   T    
C10   C17   T    
C15   C16   S    
C22   H4    S    
C3    O10   A    
C1    O1    A    
C5    O15   A    
C3    O11   A    
C21   H27   S    
C27   H16   S    
C26   H14   S    
C2    C34   T    
C9    H12   S    
C24   H7    S    
C14   C17   S    
C28   O8    S    
C25   H10   S    
C28   H21   S    
C27   H17   S    
C22   O3    S    
C1    C19   S    
C20   O16   S    
N1    Zn2   S    
C16   O6    S    
C26   H15   S    
C28   H20   S    
C6    C8    S    
C22   H3    S    
C8    H1    S    
C32   C34   S    
C9    C14   S    
C9    O3    S    
C29   C30   S    
O1    Zn1   S    
C6    O2    S    
C20   H25   S    
C21   H28   S    
C26   H13   S    
C2    C33   S    
C8    O4    S    
C26   O6    S    
C25   O5    S    
O10   Zn1   S    
C4    C10   S    
C25   H11   S    
O9    Zn2   S    
C27   O7    S    
C27   H18   S    
C7    C9    S    
C8    C14   S    
C16   O5    S    
C32   N1    T    
C6    H22   S    
O12   Zn1   S    
O15   Zn2   S    
C28   H19   S    
O11   Zn2   S    
C15   O7    S    
C1    O9    A    
C5    O14   A    
C4    O13   A    
C6    C13   S    
O14   Zn1   S    
O13   Zn2   S    
C33   N2    T    
C22   H5    S    
C12   C19   T    
C24   H6    S    
N2    Zn1   S    
C4    O12   A    
C3    C11   S    
C24   O4    S    
C7    C13   S    
C13   C16   S    
C14   C15   S    
C20   H26   S    
C20   H24   S    
C7    H23   S    
C7    O16   S    
C5    C31   S    
