data_mof_unit_pretest_1949.cif
_audit_creation_date              2012-12-11T16:03:07-0500
_audit_creation_method            fapswitch 2.2
_symmetry_space_group_name_H-M    P1
_symmetry_Int_Tables_number       1
_space_group_crystal_system       triclinic
_cell_length_a                    6.94454
_cell_length_b                    23.188272
_cell_length_c                    25.107447
_cell_angle_alpha                 106.660392
_cell_angle_beta                  89.657422
_cell_angle_gamma                 90.436036
_cell_volume                      3873.23124759

loop_
_atom_site_label
_atom_site_type_symbol
_atom_type_description
_atom_site_fract_x
_atom_site_fract_y
_atom_site_fract_z
_atom_type_partial_charge
O1    O     O_R   0.494320 0.441930 0.440920 -0.524498
O2    O     O_R   0.820780 0.446390 0.546550 -0.527307
O3    O     O_R   0.994330 0.558070 0.559080 -0.527150
C1    C     C_R   0.651212 0.432611 0.561575 0.717564
O4    O     O_R   0.823820 0.435090 0.440550 -0.513037
O5    O     O_R   0.997390 0.546680 0.452330 -0.537976
C2    C     C_R   0.654926 0.416681 0.418565 0.750678
O6    O     O_R   0.491260 0.453320 0.547670 -0.539300
O7    O     O_3   0.661870 0.536630 0.503990 -0.355429
V1    V     V_3+5 0.935460 0.493210 0.499260 1.479893
O8    O     O_R   0.327300 0.553610 0.453450 -0.515571
C3    C     C_R   0.159127 0.566411 0.437312 0.704618
O9    O     O_R   0.324250 0.564910 0.559450 -0.526274
C4    C     C_R   0.155266 0.583344 0.581418 0.704360
V2    V     V_3+5 0.435850 0.506790 0.500740 1.474608
O10   O     O_3   0.159570 0.463370 0.496010 -0.353769
C5    C     C_1   0.144550 0.635410 0.633428 -0.195100
C6    C     C_1   0.133069 0.678205 0.676744 0.018308
C7    C     C_1   0.118070 0.728762 0.728228 0.018669
C8    C     C_1   0.105141 0.771345 0.771668 0.020163
C9    C     C_1   0.090173 0.821884 0.823162 0.026108
C10   C     C_1   0.078739 0.864649 0.866493 -0.155867
C11   C     C_R   0.208159 0.904628 0.141636 -0.141481
C12   C     C_R   0.214234 0.870185 0.179202 -0.099074
C13   C     C_R   0.086004 0.821842 0.174300 -0.006437
C14   C     C_R   0.951794 0.808684 0.130699 -0.152471
C15   C     C_R   0.944082 0.842812 0.092415 -0.025322
C16   C     C_R   0.072483 0.892311 0.098363 -0.108378
N1    N     N_R   0.006824 0.729690 0.201513 -0.263718
N2    N     N_R   0.010538 0.696752 0.237189 -0.243357
C17   C     C_R   0.097295 0.717759 0.287504 0.575169
N3    N     N_R   0.185497 0.772572 0.299715 -0.258739
N4    N     N_R   0.183030 0.805379 0.263868 -0.273619
C18   C     C_R   0.092359 0.784859 0.214086 0.530106
C19   C     C_R   0.261880 0.687720 0.363552 -0.141377
C20   C     C_R   0.285523 0.651498 0.399371 -0.004470
C21   C     C_R   0.148717 0.605664 0.399201 -0.150956
C22   C     C_R   0.989270 0.599131 0.363580 -0.182833
C23   C     C_R   0.960904 0.637042 0.329428 -0.001715
C24   C     C_R   0.103747 0.680622 0.327458 -0.076205
C25   C     C_R   0.490173 0.398650 0.636723 -0.137161
H1    H     H_    0.379949 0.432125 0.639145 0.126143
C26   C     C_R   0.481696 0.364039 0.674134 -0.088889
H2    H     H_    0.363839 0.371252 0.703692 0.144319
C27   C     C_R   0.624112 0.321230 0.673758 -0.011748
C28   C     C_R   0.773405 0.313183 0.634320 -0.166313
H3    H     H_    0.882093 0.279408 0.632600 0.172853
C29   C     C_R   0.781856 0.346656 0.595643 -0.024937
C30   C     C_R   0.640634 0.391429 0.597600 -0.126667
N5    N     N_R   0.753219 0.242117 0.712040 -0.272693
N6    N     N_R   0.747316 0.208816 0.747367 -0.271619
C31   C     C_R   0.604883 0.216197 0.786041 0.538625
N7    N     N_R   0.468547 0.258512 0.787734 -0.272755
N8    N     N_R   0.474365 0.291819 0.752332 -0.276746
C32   C     C_R   0.616904 0.284349 0.713627 0.533196
C33   C     C_R   0.457909 0.188344 0.867247 -0.122189
C34   C     C_R   0.451044 0.153527 0.904793 -0.072479
C35   C     C_R   0.582733 0.105316 0.899127 -0.186283
C36   C     C_R   0.723300 0.094891 0.855974 -0.060033
C37   C     C_R   0.731510 0.132192 0.820654 -0.114568
C38   C     C_R   0.598086 0.178503 0.825235 -0.017346
C39   C     C_1   0.643990 0.364651 0.366542 -0.180979
C40   C     C_1   0.632554 0.321883 0.323207 0.023295
C41   C     C_1   0.617723 0.271356 0.271699 0.019070
C42   C     C_1   0.604955 0.228786 0.228244 0.017713
C43   C     C_1   0.590144 0.178243 0.176749 0.020875
C44   C     C_1   0.578752 0.135446 0.133436 -0.184854
O11   O     O_R   0.731800 0.046750 0.952380 -0.521757
O12   O     O_R   0.399050 0.064920 0.059460 -0.518236
O13   O     O_R   0.225670 0.953300 0.047660 -0.538937
C45   C     C_R   0.567907 0.083372 0.081449 0.708767
O14   O     O_R   0.402270 0.053620 0.953470 -0.519997
O15   O     O_R   0.228900 0.941920 0.940910 -0.531133
C46   C     C_R   0.571765 0.065959 0.937076 0.677661
O16   O     O_R   0.728560 0.058130 0.059130 -0.528286
O17   O     O_3   0.561250 0.963410 0.996040 -0.363447
V3    V     V_3+5 0.287590 0.006790 0.000740 1.514512
O18   O     O_R   0.898990 0.935020 0.940500 -0.511521
C47   C     C_R   0.068003 0.916667 0.918520 0.787405
O19   O     O_R   0.895770 0.946320 0.046490 -0.534787
C48   C     C_R   0.064177 0.932956 0.061879 0.715078
V4    V     V_3+5 0.787210 0.993120 0.999190 1.499294
O20   O     O_3   0.063420 0.036580 0.003960 -0.349079
H4    H     H_    0.307943 0.942006 0.147146 0.116016
C49   C     C_2   0.935276 0.331060 0.552583 0.762355
O21   O     O_2   0.900185 0.329190 0.504439 -0.557323
O22   O     O_R   0.118705 0.315973 0.566785 -0.663803
H5    H     H_    0.211077 0.305984 0.534035 0.303355
H6    H     H_    0.355588 0.224543 0.871949 0.157780
C50   C     C_2   0.307334 0.170582 0.950648 0.848437
O23   O     O_2   0.139813 0.178359 0.940052 -0.520478
O24   O     O_R   0.360508 0.179748 0.006114 -0.638296
H7    H     H_    0.504586 0.177310 0.011097 0.242220
C51   C     C_2   0.859983 0.043765 0.844621 0.819631
O25   O     O_2   0.031699 0.053039 0.839946 -0.526032
O26   O     O_R   0.795838 0.984709 0.837387 -0.649754
H8    H     H_    0.650398 0.981015 0.837550 0.248153
H9    H     H_    0.839689 0.123509 0.788071 0.157742
H10   H     H_    0.320276 0.881377 0.212077 0.142753
H11   H     H_    0.853605 0.771012 0.125943 0.170647
C52   C     C_2   0.807021 0.823430 0.045395 0.767721
O27   O     O_2   0.649031 0.803131 0.052594 -0.550650
O28   O     O_R   0.860539 0.826256 0.992416 -0.667252
H12   H     H_    0.754946 0.811564 0.963935 0.293059
H13   H     H_    0.370411 0.721567 0.363515 0.180474
C53   C     C_2   0.450563 0.665364 0.437827 0.766613
O29   O     O_2   0.459469 0.714213 0.473064 -0.543854
O30   O     O_R   0.600334 0.624203 0.432134 -0.652050
H14   H     H_    0.706315 0.639538 0.460355 0.297318
H15   H     H_    0.881478 0.565158 0.363800 0.179271
C54   C     C_2   0.773392 0.632355 0.300277 0.800244
O31   O     O_2   0.695188 0.677480 0.295050 -0.545741
O32   O     O_R   0.680438 0.576519 0.281543 -0.658713
H16   H     H_    0.551238 0.579314 0.263869 0.307974

loop_
_geom_bond_atom_site_label_1
_geom_bond_atom_site_label_2
_ccdc_geom_bond_type
O22   H5    S    
C52   O27   D    
C12   H10   S    
C25   H1    S    
O12   V3    S    
C7    C8    T    
C1    O6    A    
C50   O23   D    
N7    N8    A    
C17   C24   S    
C14   C15   A    
C39   C40   T    
C20   C21   A    
C21   C22   A    
C10   C47   S    
C37   H9    S    
C31   C38   S    
O5    C3    A    
N2    C17   A    
C53   O29   D    
V3    O20   S    
O11   C46   A    
V2    O10   S    
O30   H14   S    
C6    C7    S    
C3    C21   S    
O12   C45   A    
O13   C48   A    
O14   V3    S    
N8    C32   A    
O8    V2    S    
C19   C20   A    
C11   C12   A    
O1    V2    S    
C36   C51   S    
C22   H15   S    
O7    V1    S    
C13   C18   S    
C23   C54   S    
C43   C44   T    
C36   C37   A    
C52   O28   S    
O9    C4    A    
O13   V3    S    
C25   C26   A    
C4    C5    S    
C25   C30   A    
N5    N6    A    
C49   O22   S    
C28   C29   A    
C34   C50   S    
C20   C53   S    
N6    C31   A    
C12   C13   A    
O14   C46   A    
C11   H4    S    
O17   V4    S    
C23   C24   A    
O4    C2    A    
O18   C47   A    
C35   C36   A    
C49   O21   D    
N1    C18   A    
C15   C52   S    
C37   C38   A    
O2    C1    A    
C26   H2    S    
C2    C39   S    
N1    N2    A    
C19   H13   S    
O18   V4    S    
C50   O24   S    
C17   N3    A    
O26   H8    S    
C5    C6    T    
O15   C47   A    
C54   O32   S    
C11   C16   A    
O17   V3    S    
C51   O26   S    
C26   C27   A    
O3    C4    A    
O19   V4    S    
C33   H6    S    
V4    O20   S    
O6    V2    S    
O9    V2    S    
C33   C34   A    
O2    V1    S    
O28   H12   S    
C31   N7    A    
C35   C46   S    
O32   H16   S    
C28   H3    S    
C29   C30   A    
C54   O31   D    
C16   C48   S    
O1    C2    A    
C29   C49   S    
O19   C48   A    
O5    V1    S    
O8    C3    A    
O16   V4    S    
N5    C32   A    
C1    C30   S    
O11   V4    S    
C41   C42   T    
C19   C24   A    
C13   C14   A    
O4    V1    S    
O3    V1    S    
V1    O10   S    
N3    N4    A    
C45   O16   A    
C34   C35   A    
C22   C23   A    
C53   O30   S    
O24   H7    S    
N4    C18   A    
C44   C45   S    
O7    V2    S    
C51   O25   D    
C40   C41   S    
C27   C28   A    
C8    C9    S    
C27   C32   S    
C42   C43   S    
C15   C16   A    
O15   V3    S    
C33   C38   A    
C9    C10   T    
C14   H11   S    
