data_mof_unit_pretest_1484.cif
_audit_creation_date              2012-12-10T17:48:19-0500
_audit_creation_method            fapswitch 2.2
_symmetry_space_group_name_H-M    P1
_symmetry_Int_Tables_number       1
_space_group_crystal_system       triclinic
_cell_length_a                    13.848501
_cell_length_b                    14.803333
_cell_length_c                    14.700407
_cell_angle_alpha                 115.526945
_cell_angle_beta                  107.947779
_cell_angle_gamma                 72.645952
_cell_volume                      2538.60209788

loop_
_atom_site_label
_atom_site_type_symbol
_atom_type_description
_atom_site_fract_x
_atom_site_fract_y
_atom_site_fract_z
_atom_type_partial_charge
C1    C     C_R   0.515720 0.118437 0.689097 0.901050
C2    C     C_R   0.487694 0.881268 0.311134 0.859151
C3    C     C_R   0.507178 0.356587 0.930305 -0.052531
C4    C     C_R   0.486919 0.638329 0.075765 -0.075631
C5    C     C_R   0.507027 0.320684 0.004819 -0.225653
C6    C     C_R   0.433761 0.675214 0.994977 -0.241786
C7    C     C_R   0.482779 0.462971 0.952127 -0.078489
C8    C     C_R   0.501166 0.532004 0.055925 -0.081043
C9    C     C_R   0.519387 0.493086 0.134927 0.402985
C10   C     C_R   0.429465 0.499467 0.871790 0.449459
C11   C     C_R   0.507305 0.391773 0.106886 0.402804
C12   C     C_R   0.414138 0.604544 0.892104 0.431708
C13   C     C_R   0.292340 0.330497 0.385061 0.285418
C14   C     C_R   0.693362 0.697073 0.660633 0.318458
C15   C     C_R   0.333981 0.231721 0.386900 0.522666
C16   C     C_R   0.652431 0.786748 0.638272 0.547200
C17   C     C_R   0.500123 0.275628 0.470747 0.538622
C18   C     C_R   0.511125 0.712340 0.512927 0.505256
C19   C     C_R   0.461033 0.378799 0.476871 -0.193408
C20   C     C_R   0.539789 0.629364 0.547655 -0.198505
C21   C     C_R   0.354296 0.405248 0.436335 -0.104292
C22   C     C_R   0.635726 0.618791 0.615972 -0.089454
C23   C     C_R   0.686907 0.986601 0.503922 0.836458
C24   C     C_R   0.313156 0.013517 0.496287 0.794097
C25   C     C_R   0.521705 0.457914 0.524204 0.114060
C26   C     C_R   0.477885 0.554269 0.513958 0.152076
C27   C     C_R   0.370140 0.579930 0.489435 -0.209620
C28   C     C_R   0.618198 0.450415 0.592227 -0.215546
C29   C     C_R   0.309382 0.507460 0.451946 -0.156185
C30   C     C_R   0.671173 0.531106 0.640782 -0.164571
C31   C     C_1   0.207856 0.022649 0.495854 -0.139709
C32   C     C_1   0.792381 0.977516 0.504797 -0.145011
C33   C     C_2   0.012480 0.038844 0.496946 0.418500
C34   C     C_2   0.988233 0.961368 0.505058 0.422551
C35   C     C_1   0.881270 0.969471 0.505196 -0.045166
C36   C     C_1   0.119207 0.030586 0.496085 -0.042107
C37   C     C_R   0.518103 0.184485 0.799534 -0.294049
C38   C     C_R   0.480455 0.814026 0.200143 -0.302453
C39   C     C_R   0.505125 0.215635 0.973470 0.400200
C40   C     C_R   0.402134 0.782358 0.019272 0.387460
C41   C     C_R   0.502162 0.150392 0.869390 0.273610
C42   C     C_R   0.429261 0.850698 0.120344 0.271153
C43   C     C_R   0.531061 0.285473 0.835058 0.386143
C44   C     C_R   0.523403 0.709771 0.173456 0.441063
Cu1   Cu    Cu3+1 0.526370 0.916390 0.524860 1.050481
Cu2   Cu    Cu3+1 0.473630 0.083610 0.475140 1.063071
H1    H     H_    0.331140 0.658092 0.509578 0.143744
H2    H     H_    0.650060 0.387439 0.617709 0.244952
H3    H     H_    0.226299 0.532879 0.436866 0.181787
H4    H     H_    0.740307 0.523935 0.698736 0.198866
N1    N     N_R   0.433980 0.209250 0.437830 -0.273085
N2    N     N_R   0.566020 0.790750 0.562170 -0.269063
O1    O     O_R   0.534760 0.019630 0.662610 -0.495126
O2    O     O_R   0.465240 0.980370 0.337390 -0.523589
O3    O     O_R   0.490220 0.160840 0.620610 -0.542988
O4    O     O_R   0.509780 0.839160 0.379390 -0.517607
O5    O     O_R   0.663260 0.919400 0.523940 -0.577422
O6    O     O_R   0.336740 0.080600 0.476060 -0.526340
O7    O     O_R   0.618720 0.060610 0.481950 -0.515301
O8    O     O_R   0.381280 0.939390 0.518050 -0.589712
O9    O     O_3   0.066249 0.877232 0.511793 -0.601512
C45   C     C_3   0.030904 0.803318 0.523136 -0.285206
H5    H     H_    0.971339 0.770256 0.454677 0.174255
H6    H     H_    0.000901 0.835816 0.595163 0.167015
H7    H     H_    0.097171 0.740224 0.528994 0.191086
O10   O     O_3   0.934554 0.123096 0.490554 -0.608361
C46   C     C_3   0.970143 0.197796 0.480808 -0.281976
H8    H     H_    0.000317 0.166319 0.408997 0.179232
H9    H     H_    0.029611 0.230229 0.549721 0.180403
H10   H     H_    0.903970 0.261137 0.475587 0.182930
O11   O     O_3   0.187354 0.356490 0.346735 -0.565858
C47   C     C_3   0.172068 0.369396 0.252906 -0.342475
H11   H     H_    0.091431 0.362497 0.210514 0.205128
H12   H     H_    0.223891 0.310760 0.201563 0.151071
H13   H     H_    0.181485 0.446230 0.266417 0.166217
O12   O     O_3   0.784594 0.690715 0.732781 -0.548632
C48   C     C_3   0.866746 0.630567 0.681131 -0.331389
H14   H     H_    0.940491 0.650872 0.734053 0.205088
H15   H     H_    0.861046 0.643155 0.610053 0.128131
H16   H     H_    0.872181 0.548190 0.660964 0.173280
O13   O     O_3   0.499406 0.362721 0.181400 -0.550608
C49   C     C_3   0.397008 0.397928 0.196637 -0.238585
H17   H     H_    0.339572 0.372869 0.122990 0.159713
H18   H     H_    0.379851 0.482277 0.236064 0.183760
H19   H     H_    0.388693 0.364186 0.247171 0.192134
O14   O     O_3   0.382071 0.637084 0.810554 -0.559755
C50   C     C_3   0.469536 0.651804 0.791969 -0.202590
H20   H     H_    0.445072 0.670938 0.722169 0.199171
H21   H     H_    0.531108 0.581964 0.778250 0.143982
H22   H     H_    0.502354 0.716463 0.856611 0.211252
Cl1   Cl    Cl    0.651961 0.680288 0.238937 -0.609076
Cl2   Cl    Cl    0.597542 0.318743 0.771700 -0.632534
Cl3   Cl    Cl    0.412707 0.980510 0.140661 -0.511951
Cl4   Cl    Cl    0.477257 0.026534 0.829461 -0.451056
Cl5   Cl    Cl    0.505398 0.161244 0.060140 -0.445964
Cl6   Cl    Cl    0.315177 0.835746 0.929714 -0.463906
O15   O     O_3   0.528995 0.558320 0.237736 -0.534160
C51   C     C_3   0.615146 0.517773 0.301036 -0.044496
H23   H     H_    0.678330 0.466015 0.259975 0.128126
H24   H     H_    0.590049 0.478614 0.336838 0.172974
H25   H     H_    0.648784 0.581680 0.365622 0.182826
O16   O     O_3   0.371078 0.434658 0.785713 -0.587637
C52   C     C_3   0.367833 0.439267 0.691053 -0.122949
H26   H     H_    0.353291 0.365229 0.629106 0.166195
H27   H     H_    0.441976 0.450002 0.686898 0.180961
H28   H     H_    0.301961 0.498512 0.674393 0.195796
O17   O     O_3   0.457889 0.694262 0.411599 -0.529897
C53   C     C_3   0.352510 0.741559 0.402145 -0.156158
H29   H     H_    0.335485 0.790423 0.357237 0.168539
H30   H     H_    0.304873 0.681989 0.355272 0.137421
H31   H     H_    0.326877 0.787397 0.476465 0.154188
O18   O     O_3   0.604791 0.239868 0.494043 -0.553898
C54   C     C_3   0.644307 0.209318 0.405233 -0.211172
H32   H     H_    0.636455 0.275347 0.384192 0.155021
H33   H     H_    0.606287 0.148949 0.338758 0.201450
H34   H     H_    0.727887 0.176568 0.421907 0.222041
O19   O     O_3   0.691756 0.875231 0.699086 -0.507878
C55   C     C_3   0.794955 0.863267 0.693141 -0.178205
H35   H     H_    0.808016 0.938566 0.705795 0.166791
H36   H     H_    0.812597 0.809675 0.616564 0.109568
H37   H     H_    0.849600 0.840625 0.756197 0.201718
O20   O     O_3   0.270541 0.161275 0.350891 -0.545975
C56   C     C_3   0.221348 0.138979 0.246287 -0.150645
H38   H     H_    0.215056 0.057381 0.210765 0.192312
H39   H     H_    0.264294 0.151136 0.201214 0.184380
H40   H     H_    0.141152 0.183580 0.239913 0.180746

loop_
_geom_bond_atom_site_label_1
_geom_bond_atom_site_label_2
_ccdc_geom_bond_type
C7    C10   A    
C50   H20   S    
Cu1   O8    S    
C15   O20   S    
Cu2   O7    S    
C27   C29   A    
C42   Cl3   S    
C56   H38   S    
C4    C8    A    
C17   N1    A    
O13   C49   S    
C18   N2    A    
C7    C8    A    
C39   C41   A    
C29   H3    S    
C48   H14   S    
C11   O13   S    
C25   C28   A    
C23   O7    A    
Cu1   O5    S    
C26   C27   A    
C19   C21   A    
C5    C11   A    
C3    C7    A    
C6    C12   A    
C56   H39   S    
C33   C36   S    
C53   H29   S    
C34   C35   S    
C1    O1    A    
C55   H35   S    
C45   H6    S    
C18   O17   S    
Cu1   O4    S    
C8    C9    A    
Cu2   O3    S    
O17   C53   S    
C15   N1    A    
C18   C20   A    
C1    C37   S    
C54   H34   S    
C40   C42   A    
O10   C46   S    
C30   H4    S    
Cu1   O1    S    
Cu2   O6    S    
O16   C52   S    
C40   Cl6   S    
C47   H13   S    
O18   C54   S    
C33   O10   S    
O15   C51   S    
C48   H15   S    
C46   H8    S    
C32   C35   T    
C10   O16   S    
O12   C48   S    
C4    C6    A    
C2    O2    A    
O14   C50   S    
C56   H40   S    
C4    C44   A    
Cu1   N2    S    
C25   C26   A    
Cu1   Cu2   S    
C21   C29   A    
Cu2   N1    S    
C34   O9    S    
C46   H9    S    
C55   H37   S    
C14   O12   S    
C37   C43   A    
C38   C44   A    
C45   H5    S    
C2    C38   S    
C41   Cl4   S    
C24   O8    A    
C3    C43   A    
Cu2   O2    S    
C33   C34   D    
C13   C21   A    
C52   H27   S    
C9    C11   A    
C39   Cl5   S    
C44   Cl1   S    
C10   C12   A    
C47   H12   S    
C20   C22   A    
C51   H23   S    
C51   H24   S    
C13   C15   A    
C14   C16   A    
C49   H19   S    
C17   O18   S    
C54   H32   S    
C48   H16   S    
C27   H1    S    
C23   O5    A    
C28   H2    S    
C9    O15   S    
C22   C30   A    
C45   H7    S    
C16   N2    A    
C47   H11   S    
C3    C5    A    
C38   C42   A    
C51   H25   S    
C13   O11   S    
C49   H18   S    
C43   Cl2   S    
C53   H31   S    
C12   O14   S    
C46   H10   S    
C23   C32   S    
C14   C22   A    
C5    C39   A    
C1    O3    A    
C24   C31   S    
O11   C47   S    
C2    O4    A    
C16   O19   S    
C20   C26   A    
C28   C30   A    
C17   C19   A    
C53   H30   S    
C52   H28   S    
C6    C40   A    
C37   C41   A    
O9    C45   S    
C19   C25   A    
C55   H36   S    
C24   O6    A    
C49   H17   S    
C50   H22   S    
C52   H26   S    
C50   H21   S    
C31   C36   T    
O20   C56   S    
O19   C55   S    
C54   H33   S    
