data_mof_unit_pretest_1655.cif
_audit_creation_date              2013-03-05T15:45:08-0500
_audit_creation_method            fapswitch 2.2
_symmetry_space_group_name_H-M    P1
_symmetry_Int_Tables_number       1
_space_group_crystal_system       triclinic
_cell_length_a                    15.083811
_cell_length_b                    15.124564
_cell_length_c                    17.878828
_cell_angle_alpha                 97.712261
_cell_angle_beta                  81.107706
_cell_angle_gamma                 90.100801
_cell_volume                      3992.57872355

loop_
_atom_site_label
_atom_site_type_symbol
_atom_site_description
_atom_site_fract_x
_atom_site_fract_y
_atom_site_fract_z
_atom_type_partial_charge
Zn1   Zn    Zn3+2 0.561520 0.445100 0.571350 1.016850
Zn2   Zn    Zn3+2 0.445110 0.407660 0.436320 1.042497
Zn3   Zn    Zn3+2 0.585720 0.564830 0.435510 0.987945
Zn4   Zn    Zn3+2 0.407650 0.582410 0.556820 1.008376
O1    O     O_3   0.500000 0.500000 0.500000 -0.507524
O2    O     O_R   0.290360 0.547900 0.533020 -0.640050
O3    O     O_R   0.688060 0.471350 0.556700 -0.643703
O4    O     O_R   0.468110 0.290360 0.462980 -0.649481
O5    O     O_R   0.553470 0.690390 0.447300 -0.632167
O6    O     O_R   0.491950 0.408270 0.329190 -0.607643
O7    O     O_R   0.405000 0.584780 0.666010 -0.650771
O8    O     O_R   0.590360 0.518280 0.328620 -0.638985
O9    O     O_R   0.512690 0.488670 0.676180 -0.622392
O10   O     O_R   0.549580 0.316560 0.557500 -0.599710
O11   O     O_R   0.428830 0.702690 0.532220 -0.627514
O12   O     O_R   0.316580 0.425590 0.448670 -0.599280
O13   O     O_R   0.705010 0.555150 0.461620 -0.638721
C1    C     C_R   0.262416 0.485665 0.487287 0.882068
C2    C     C_R   0.737469 0.516724 0.511688 0.781347
C3    C     C_R   0.508056 0.262640 0.514093 0.855598
C4    C     C_R   0.489300 0.737688 0.487718 0.796126
C5    C     C_R   0.551464 0.453935 0.293408 0.805031
C6    C     C_R   0.449258 0.544517 0.707431 0.817873
C7    C     C_R   0.422981 0.557173 0.790886 -0.024208
C8    C     C_R   0.570893 0.435229 0.210887 0.005074
C9    C     C_R   0.320491 0.615899 0.904264 -0.122624
C10   C     C_R   0.347420 0.608946 0.825704 -0.190278
C11   C     C_R   0.472206 0.513856 0.835628 -0.184972
C12   C     C_R   0.445058 0.517301 0.915007 0.052061
C13   C     C_R   0.367419 0.569467 0.949689 0.028018
C14   C     C_R   0.494714 0.472440 0.960715 0.068345
C15   C     C_R   0.471753 0.487950 0.041607 0.008803
C16   C     C_R   0.392518 0.537350 0.073872 -0.257023
C17   C     C_R   0.339613 0.575997 0.029123 0.288143
C18   C     C_R   0.566161 0.411877 0.928132 -0.168769
C19   C     C_R   0.617979 0.373549 0.973230 -0.208653
C20   C     C_R   0.601169 0.394218 0.052283 0.155887
C21   C     C_R   0.527878 0.451711 0.087644 0.115475
C22   C     C_R   0.657137 0.357533 0.096449 -0.169582
C23   C     C_R   0.641822 0.377841 0.175604 -0.199807
C24   C     C_R   0.514949 0.472255 0.167860 -0.208164
H1    H     H_    0.463259 0.518083 0.198949 0.154186
H2    H     H_    0.684845 0.348609 0.209336 0.137854
H3    H     H_    0.672420 0.328015 0.945805 0.160740
H4    H     H_    0.263202 0.658771 0.928882 0.194583
H5    H     H_    0.308829 0.644063 0.792231 0.176731
H6    H     H_    0.532798 0.479337 0.806931 0.160710
H7    H     H_    0.367060 0.543668 0.134052 0.208621
H8    H     H_    0.582824 0.390521 0.867662 0.170108
H9    H     H_    0.712729 0.313125 0.069693 0.151509
C25   C     C_R   0.168795 0.487705 0.475774 -0.145639
C26   C     C_R   0.832287 0.522406 0.517935 -0.001762
C27   C     C_R   0.948317 0.532902 0.598114 -0.178729
C28   C     C_R   0.858074 0.535851 0.590590 -0.183109
C29   C     C_R   0.896957 0.505955 0.452455 -0.228610
C30   C     C_R   0.987638 0.499916 0.459663 0.109873
C31   C     C_R   0.013356 0.514111 0.533026 0.181538
C32   C     C_R   0.103555 0.508405 0.540392 -0.300628
C33   C     C_R   0.143771 0.473494 0.401924 0.312224
C34   C     C_R   0.052764 0.478951 0.394873 -0.253841
H10   H     H_    0.123250 0.519455 0.596738 0.169025
H11   H     H_    0.967067 0.543585 0.654721 0.149592
H12   H     H_    0.033026 0.468936 0.338597 0.190937
H13   H     H_    0.808117 0.548042 0.641529 0.154167
H14   H     H_    0.876324 0.494027 0.396528 0.152028
C35   C     C_R   0.501428 0.169014 0.525887 -0.137408
C36   C     C_R   0.488223 0.833151 0.484535 -0.117428
C37   C     C_R   0.496914 0.951380 0.405195 -0.175708
C38   C     C_R   0.493674 0.861290 0.412520 -0.220247
C39   C     C_R   0.487072 0.896154 0.550915 0.397043
C40   C     C_R   0.490428 0.987378 0.543106 0.068008
C41   C     C_R   0.495681 0.014633 0.469883 0.097087
C42   C     C_R   0.500988 0.104875 0.461960 -0.275284
C43   C     C_R   0.494192 0.142804 0.599661 0.275649
C44   C     C_R   0.490133 0.052053 0.607252 -0.198996
H15   H     H_    0.506116 0.125360 0.405575 0.173602
H16   H     H_    0.501157 0.971550 0.348837 0.162555
H17   H     H_    0.484511 0.032610 0.663921 0.234142
H18   H     H_    0.495466 0.813033 0.361642 0.176406
N1    N     N_R   0.257250 0.621022 0.065729 0.209428
O14   O     O_R   0.254398 0.671094 0.131240 -0.352904
O15   O     O_R   0.182283 0.599520 0.041042 -0.366973
N2    N     N_R   0.209405 0.458305 0.333789 0.222971
O16   O     O_R   0.191042 0.406633 0.274074 -0.358225
O17   O     O_R   0.281035 0.506491 0.326858 -0.401783
N3    N     N_R   0.486279 0.206986 0.667504 0.221946
O18   O     O_R   0.429467 0.273716 0.676977 -0.388061
O19   O     O_R   0.524128 0.190827 0.725046 -0.379863
O20   O     O_3   0.485670 0.871635 0.623011 -0.766942
H19   H     H_    0.503374 0.808112 0.619027 0.335382

loop_
_geom_bond_atom_site_label_1
_geom_bond_atom_site_label_2
_geom_bond_distance
_ccdc_geom_bond_type
C29   C30   1.397840 A    
C11   H6    1.075145 S    
C24   H1    1.077873 S    
C18   C19   1.385264 A    
C7    C10   1.397376 A    
C27   C28   1.389760 A    
O6    C5    1.277107 A    
C9    C10   1.390317 A    
C12   C13   1.423341 A    
C34   H12   1.084189 S    
Zn1   O1    1.957248 S    
C3    C35   1.460408 S    
C19   C20   1.389440 A    
C33   N2    1.438640 S    
C8    C23   1.394131 A    
N3    O19   1.301399 A    
C35   C43   1.415792 A    
O8    C5    1.278817 A    
C30   C31   1.413649 A    
O9    C6    1.285306 A    
Zn3   O8    1.936613 S    
C9    H4    1.081065 S    
C17   N1    1.437884 S    
C2    C26   1.453194 S    
C23   H2    1.083456 S    
N2    O16   1.301569 A    
C37   C38   1.386297 A    
C5    C8    1.448202 S    
C18   H8    1.076520 S    
C6    C7    1.469981 S    
C39   C40   1.405329 A    
C15   C21   1.425729 A    
Zn2   O12   1.932453 S    
C26   C29   1.397722 A    
C32   H10   1.085440 S    
C33   C34   1.401360 A    
C4    C36   1.452787 S    
C12   C14   1.424425 A    
C29   H14   1.084827 S    
C26   C28   1.401797 A    
C1    C25   1.459182 S    
O2    C1    1.277036 A    
C43   C44   1.397575 A    
C13   C17   1.407462 A    
O10   C3    1.279942 A    
C21   C24   1.409099 A    
Zn4   O2    1.937362 S    
C8    C24   1.391202 A    
C22   C23   1.390332 A    
C27   C31   1.398820 A    
N3    O18   1.301514 A    
C41   C42   1.391890 A    
C35   C42   1.397179 A    
C30   C34   1.399310 A    
C36   C38   1.399959 A    
C20   C21   1.420465 A    
Zn3   O5    1.936886 S    
C27   H11   1.083869 S    
C14   C15   1.421633 A    
O11   C4    1.277568 A    
C37   C41   1.396297 A    
C16   C17   1.393955 A    
C25   C32   1.397740 A    
O4    C3    1.283702 A    
C43   N3    1.437865 S    
Zn4   O7    1.941914 S    
C10   H5    1.083139 S    
N1    O15   1.301429 A    
N2    O17   1.301516 A    
C9    C13   1.409379 A    
O3    C2    1.278685 A    
C42   H15   1.085305 S    
C14   C18   1.416322 A    
C38   H18   1.084036 S    
Zn2   O1    1.947519 S    
C25   C33   1.417600 A    
Zn2   O6    1.937579 S    
C37   H16   1.083944 S    
C11   C12   1.408949 A    
Zn1   O3    1.933926 S    
Zn2   O4    1.943007 S    
C7    C11   1.395143 A    
N1    O14   1.301411 A    
Zn3   O1    1.949548 S    
C36   C39   1.416684 A    
C15   C16   1.412000 A    
Zn4   O11   1.942727 S    
C40   C41   1.415161 A    
C20   C22   1.403355 A    
C40   C44   1.403395 A    
O5    C4    1.272106 A    
C31   C32   1.390940 A    
C28   H13   1.083751 S    
O7    C6    1.280704 A    
O13   C2    1.286432 A    
Zn3   O13   1.938029 S    
C44   H17   1.083286 S    
C19   H3    1.084399 S    
C39   O20   1.385381 S    
Zn4   O1    1.937718 S    
C22   H9    1.083901 S    
Zn1   O9    1.932085 S    
O12   C1    1.276561 A    
C16   H7    1.076597 S    
Zn1   O10   1.938213 S    
O20   H19   0.987987 S    
