data_mof_unit_pretest_75.cif
_audit_creation_date              2012-12-10T16:41:53-0500
_audit_creation_method            fapswitch 2.2
_symmetry_space_group_name_H-M    P1
_symmetry_Int_Tables_number       1
_space_group_crystal_system       triclinic
_cell_length_a                    10.706085
_cell_length_b                    8.695681
_cell_length_c                    7.448158
_cell_angle_alpha                 103.243163
_cell_angle_beta                  92.827256
_cell_angle_gamma                 92.175169
_cell_volume                      673.271851315

loop_
_atom_site_label
_atom_site_type_symbol
_atom_type_description
_atom_site_fract_x
_atom_site_fract_y
_atom_site_fract_z
_atom_type_partial_charge
C1    C     C_R   0.495915 0.199702 0.453165 0.883604
C2    C     C_2   0.504481 0.968339 0.573073 -0.336642
C3    C     C_R   0.264868 0.478576 0.501633 0.796629
C4    C     C_R   0.503230 0.800282 0.546896 0.878455
C5    C     C_R   0.735949 0.503050 0.495660 0.842303
C6    C     C_2   0.921857 0.390634 0.357363 -0.155178
C7    C     C_2   0.870914 0.502700 0.483667 -0.278741
C8    C     C_2   0.058377 0.367325 0.357386 0.339950
C9    C     C_2   0.132406 0.429080 0.511447 0.021670
C10   C     C_2   0.493434 0.031654 0.427065 -0.314422
Cu1   Cu    Cu3+1 0.513740 0.517380 0.684380 1.029271
Cu2   Cu    Cu3+1 0.486260 0.482620 0.315620 1.042248
H1    H     H_    0.860388 0.309197 0.255416 0.181198
H2    H     H_    0.928228 0.584440 0.590791 0.183420
H3    H     H_    0.482869 0.959702 0.286522 0.189933
H4    H     H_    0.514852 0.040319 0.713622 0.187990
H5    H     H_    0.405889 0.375629 0.949034 0.287711
H6    H     H_    0.595229 0.623437 0.050753 0.228194
N1    N     N_2   0.465540 0.456420 0.038510 -0.183758
N2    N     N_2   0.534460 0.543580 0.961490 -0.216092
O1    O     O_R   0.508930 0.286130 0.619780 -0.591139
O2    O     O_R   0.485720 0.256780 0.308360 -0.562310
O3    O     O_R   0.333540 0.514670 0.655670 -0.531968
O4    O     O_R   0.310330 0.485320 0.344250 -0.530218
O5    O     O_R   0.514280 0.743220 0.691640 -0.582729
O6    O     O_R   0.491070 0.713870 0.380220 -0.586844
O7    O     O_R   0.689670 0.514680 0.655750 -0.553229
O8    O     O_R   0.666460 0.485330 0.344330 -0.597413
S1    S     S_3+6 0.103807 0.194339 0.201000 0.059104
O9    O     O_2   0.231178 0.216218 0.132655 -0.214713
O10   O     O_2   0.107192 0.061944 0.300059 -0.320840
O11   O     O_3   0.999771 0.143284 0.017945 -0.439496
H7    H     H_    0.940034 0.064550 0.048360 0.348347
S2    S     S_3+6 0.092695 0.381831 0.723024 0.065747
O12   O     O_2   0.098597 0.530285 0.874098 -0.229721
O13   O     O_2   0.964855 0.300874 0.709868 -0.245526
O14   O     O_3   0.198857 0.259508 0.776105 -0.460417
H8    H     H_    0.191101 0.165109 0.671805 0.365626

loop_
_geom_bond_atom_site_label_1
_geom_bond_atom_site_label_2
_ccdc_geom_bond_type
C2    C4    S    
Cu1   Cu2   S    
C1    O1    A    
C6    C7    D    
C3    C9    S    
S2    O14   S    
C2    H4    S    
Cu2   O4    S    
H6    N2    S    
N1    N2    D    
Cu1   O7    S    
O11   H7    S    
C4    O5    A    
C1    O2    A    
S1    O10   D    
C6    H1    S    
C3    O4    A    
S1    O9    D    
Cu2   O8    S    
C8    S1    S    
Cu2   N1    S    
Cu1   O3    S    
H5    N1    S    
O14   H8    S    
S1    O11   S    
S2    O13   D    
C10   H3    S    
C9    S2    S    
Cu1   N2    S    
C4    O6    A    
Cu1   O5    S    
C5    O8    A    
Cu2   O2    S    
S2    O12   D    
C5    C7    S    
C6    C8    S    
C5    O7    A    
C3    O3    A    
Cu1   O1    S    
C7    H2    S    
C1    C10   S    
Cu2   O6    S    
C8    C9    D    
C2    C10   D    
