data_mof_unit_pretest_1482.cif
_audit_creation_date              2012-12-10T16:37:58-0500
_audit_creation_method            fapswitch 2.2
_symmetry_space_group_name_H-M    P1
_symmetry_Int_Tables_number       1
_space_group_crystal_system       triclinic
_cell_length_a                    28.008701
_cell_length_b                    18.326879
_cell_length_c                    17.067805
_cell_angle_alpha                 90.030588
_cell_angle_beta                  60.550169
_cell_angle_gamma                 90.361719
_cell_volume                      7628.87169709

loop_
_atom_site_label
_atom_site_type_symbol
_atom_type_description
_atom_site_fract_x
_atom_site_fract_y
_atom_site_fract_z
_atom_type_partial_charge
C1    C     C_R   0.700892 0.266003 0.676936 0.903904
C2    C     C_R   0.299154 0.734068 0.322831 0.897651
C3    C     C_R   0.299005 0.266076 0.322939 0.906055
C4    C     C_R   0.706593 0.720869 0.672426 0.971532
C5    C     C_R   0.200831 0.765898 0.677176 0.905535
C6    C     C_R   0.798423 0.232554 0.323130 0.894234
C7    C     C_R   0.798039 0.768431 0.323180 0.873576
C8    C     C_R   0.200821 0.234220 0.677094 0.905882
C9    C     C_R   0.922772 0.501538 0.429316 0.068991
C10   C     C_R   0.100914 0.502964 0.493663 0.067034
C11   C     C_R   0.405083 0.996023 0.484959 0.070743
C12   C     C_R   0.594073 0.004623 0.520026 0.071463
C13   C     C_R   0.123532 0.379657 0.435285 -0.218179
C14   C     C_R   0.924614 0.633811 0.428914 -0.146449
C15   C     C_R   0.932117 0.370588 0.405496 -0.196713
C16   C     C_R   0.080276 0.629317 0.541560 -0.185513
C17   C     C_R   0.623530 0.889871 0.439560 -0.216901
C18   C     C_R   0.376312 0.111994 0.562770 -0.215723
C19   C     C_R   0.431145 0.876458 0.414729 -0.189807
C20   C     C_R   0.568025 0.124005 0.590641 -0.190012
C21   C     C_R   0.715853 0.255914 0.957669 0.029150
C22   C     C_R   0.281853 0.739053 0.043392 0.028913
C23   C     C_R   0.281223 0.261466 0.043891 0.028390
C24   C     C_R   0.723114 0.730442 0.948841 0.027173
C25   C     C_R   0.217830 0.760394 0.956918 0.028687
C26   C     C_R   0.778942 0.232601 0.045221 0.028739
C27   C     C_R   0.782805 0.762539 0.040139 0.029466
C28   C     C_R   0.217499 0.240882 0.956813 0.028750
C29   C     C_R   0.768070 0.222887 0.911437 0.007032
C30   C     C_R   0.230953 0.775320 0.088500 0.004952
C31   C     C_R   0.228555 0.228932 0.090317 0.010982
C32   C     C_R   0.780211 0.745852 0.899232 0.009183
C33   C     C_R   0.268697 0.724058 0.911848 0.004410
C34   C     C_R   0.726068 0.263873 0.092070 0.006623
C35   C     C_R   0.727175 0.740373 0.088484 0.019952
C36   C     C_R   0.270030 0.273801 0.910489 0.009448
C37   C     C_R   0.800760 0.214225 0.953816 0.053726
C38   C     C_R   0.197791 0.783242 0.046724 0.054711
C39   C     C_R   0.195735 0.221203 0.048019 0.055176
C40   C     C_R   0.809216 0.767544 0.945273 0.053198
C41   C     C_R   0.301867 0.716151 0.953608 0.053277
C42   C     C_R   0.693740 0.273513 0.049257 0.055266
C43   C     C_R   0.696066 0.730750 0.043655 0.055561
C44   C     C_R   0.302913 0.281382 0.952730 0.055666
C45   C     C_R   0.634140 0.306388 0.957638 0.042613
C46   C     C_R   0.364079 0.689951 0.042630 0.040084
C47   C     C_R   0.364487 0.308198 0.042627 0.045379
C48   C     C_R   0.637002 0.692014 0.952647 0.048196
C49   C     C_R   0.135722 0.809768 0.957533 0.042876
C50   C     C_R   0.862736 0.188063 0.043396 0.041164
C51   C     C_R   0.866068 0.806715 0.041064 0.043706
C52   C     C_R   0.134632 0.193008 0.957727 0.045235
C53   C     C_R   0.610671 0.335376 0.906072 -0.110168
C54   C     C_R   0.388579 0.663367 0.093836 -0.106081
C55   C     C_R   0.389046 0.335282 0.093549 -0.110847
C56   C     C_R   0.611390 0.663367 0.904169 -0.107041
C57   C     C_R   0.111371 0.836589 0.906202 -0.107793
C58   C     C_R   0.887914 0.162616 0.094090 -0.108802
C59   C     C_R   0.889851 0.834721 0.092771 -0.109953
C60   C     C_R   0.110415 0.165279 0.906623 -0.112704
C61   C     C_R   0.631243 0.314891 0.817627 -0.269508
C62   C     C_R   0.368591 0.684963 0.181796 -0.271743
C63   C     C_R   0.368880 0.313883 0.181571 -0.272008
C64   C     C_R   0.634166 0.677238 0.813814 -0.265974
C65   C     C_R   0.131483 0.815187 0.818143 -0.271581
C66   C     C_R   0.867802 0.184064 0.182008 -0.275659
C67   C     C_R   0.868550 0.814972 0.181524 -0.276637
C68   C     C_R   0.130650 0.186508 0.818479 -0.271391
C69   C     C_R   0.677219 0.271703 0.774900 -0.092232
C70   C     C_R   0.322652 0.728064 0.224506 -0.089883
C71   C     C_R   0.321936 0.271997 0.225084 -0.090071
C72   C     C_R   0.687614 0.700530 0.765499 -0.104338
C73   C     C_R   0.177297 0.771871 0.775526 -0.091252
C74   C     C_R   0.820610 0.224640 0.225551 -0.091815
C75   C     C_R   0.820094 0.776374 0.225681 -0.090198
C76   C     C_R   0.177448 0.228746 0.775092 -0.090650
C77   C     C_R   0.704595 0.246183 0.823092 -0.002897
C78   C     C_R   0.295169 0.752996 0.176068 -0.005489
C79   C     C_R   0.293250 0.248214 0.177772 -0.006698
C80   C     C_R   0.720319 0.708332 0.808627 -0.004312
C81   C     C_R   0.204634 0.746699 0.824096 -0.006697
C82   C     C_R   0.791289 0.245918 0.178656 -0.005202
C83   C     C_R   0.790441 0.756089 0.178666 -0.002457
C84   C     C_R   0.205681 0.253286 0.822751 -0.008618
C85   C     C_R   0.689989 0.130111 0.539663 0.902956
C86   C     C_R   0.309624 0.870274 0.462503 0.907449
C87   C     C_R   0.304342 0.127250 0.479511 0.920601
C88   C     C_R   0.695528 0.872786 0.521196 0.922296
C89   C     C_R   0.190877 0.629100 0.534345 0.913534
C90   C     C_R   0.810070 0.370105 0.460218 0.907420
C91   C     C_R   0.809542 0.629796 0.461658 0.946715
C92   C     C_R   0.195480 0.372373 0.520347 0.924465
C93   C     C_R   0.685249 0.270400 0.912303 -0.005290
C94   C     C_R   0.313287 0.726453 0.087910 -0.008574
C95   C     C_R   0.312645 0.273381 0.088579 -0.007948
C96   C     C_R   0.693346 0.711380 0.903483 -0.000658
C97   C     C_R   0.186469 0.773154 0.912312 -0.008341
C98   C     C_R   0.810552 0.221037 0.089663 -0.007941
C99   C     C_R   0.812670 0.776524 0.087076 -0.004602
C100  C     C_R   0.186276 0.228322 0.911960 -0.007146
C101  C     C_R   0.608229 0.308276 0.052761 0.171059
C102  C     C_R   0.388427 0.684301 0.947748 0.176550
C103  C     C_R   0.389735 0.311861 0.947549 0.176106
C104  C     C_R   0.609190 0.703106 0.046754 0.163481
C105  C     C_R   0.111307 0.815329 0.052443 0.176999
C106  C     C_R   0.887777 0.185038 0.948278 0.175329
C107  C     C_R   0.893484 0.805172 0.945738 0.167988
C108  C     C_R   0.109190 0.189647 0.052811 0.175133
C109  C     C_R   0.638321 0.294921 0.096702 -0.230422
C110  C     C_R   0.356706 0.692834 0.905648 -0.236520
C111  C     C_R   0.358622 0.302022 0.904581 -0.238619
C112  C     C_R   0.638614 0.720863 0.090902 -0.227202
C113  C     C_R   0.142960 0.806602 0.094638 -0.238255
C114  C     C_R   0.856460 0.194373 0.905563 -0.236215
C115  C     C_R   0.864957 0.788646 0.899731 -0.226211
C116  C     C_R   0.140055 0.200344 0.096032 -0.236515
C117  C     C_R   0.749874 0.197049 0.788736 0.408159
C118  C     C_R   0.251340 0.804216 0.208835 0.404226
C119  C     C_R   0.246508 0.200455 0.212811 0.396236
C120  C     C_R   0.778366 0.710339 0.762351 0.388623
C121  C     C_R   0.248366 0.695346 0.791402 0.404336
C122  C     C_R   0.744184 0.291676 0.214074 0.403102
C123  C     C_R   0.740204 0.715547 0.216369 0.387925
C124  C     C_R   0.251884 0.301853 0.788032 0.398251
C125  C     C_R   0.783304 0.191973 0.827687 -0.256073
C126  C     C_R   0.217751 0.809835 0.169891 -0.258410
C127  C     C_R   0.212908 0.197222 0.173981 -0.275976
C128  C     C_R   0.807079 0.732441 0.806007 -0.235589
C129  C     C_R   0.281881 0.689537 0.830465 -0.255749
C130  C     C_R   0.709962 0.293405 0.176645 -0.252655
C131  C     C_R   0.706539 0.718105 0.177749 -0.283230
C132  C     C_R   0.285442 0.305795 0.826984 -0.279695
C133  C     C_R   0.071258 0.104034 0.937176 0.929308
C134  C     C_R   0.929313 0.895483 0.062213 0.931497
C135  C     C_R   0.928120 0.103256 0.063319 0.929888
C136  C     C_R   0.071905 0.896812 0.936599 0.929109
C137  C     C_R   0.570122 0.605066 0.938118 0.938245
C138  C     C_R   0.428518 0.396164 0.062977 0.928133
C139  C     C_R   0.428089 0.603189 0.063412 0.922990
C140  C     C_R   0.571581 0.396354 0.936788 0.933316
C141  C     C_R   0.519437 0.120853 0.585859 0.104473
C142  C     C_R   0.479883 0.880028 0.418791 0.105269
C143  C     C_R   0.422761 0.114002 0.573527 0.111545
C144  C     C_R   0.576894 0.887598 0.429591 0.114486
C145  C     C_R   0.042828 0.632058 0.510503 0.095800
C146  C     C_R   0.982050 0.372563 0.406568 0.105661
C147  C     C_R   0.964878 0.634381 0.453595 0.116253
C148  C     C_R   0.077920 0.377229 0.422136 0.105960
C149  C     C_R   0.480244 0.176356 0.622945 -0.181213
C150  C     C_R   0.519366 0.824997 0.380650 -0.185833
C151  C     C_R   0.432057 0.172679 0.617449 -0.192722
C152  C     C_R   0.567792 0.829113 0.385241 -0.194562
C153  C     C_R   0.017694 0.697900 0.510132 -0.193095
C154  C     C_R   0.015182 0.310475 0.387042 -0.181228
C155  C     C_R   0.980621 0.699593 0.477872 -0.156345
C156  C     C_R   0.063533 0.313333 0.392595 -0.194439
C157  C     C_R   0.461478 0.057587 0.537255 0.032741
C158  C     C_R   0.537860 0.943518 0.467027 0.032335
C159  C     C_R   0.509525 0.060706 0.544020 0.026483
C160  C     C_R   0.489716 0.940200 0.460702 0.026744
C161  C     C_R   0.988603 0.568289 0.456523 0.029202
C162  C     C_R   0.045335 0.439423 0.440630 0.034371
C163  C     C_R   0.030339 0.567955 0.479023 0.030995
C164  C     C_R   0.999077 0.437987 0.428591 0.031972
C165  C     C_R   0.970478 0.502548 0.437163 -0.033293
C166  C     C_R   0.058871 0.503384 0.471194 -0.033008
C167  C     C_R   0.451816 0.997566 0.495202 -0.033450
C168  C     C_R   0.547384 0.003298 0.509600 -0.033437
C169  C     C_R   0.899862 0.434348 0.423182 0.027842
C170  C     C_R   0.112470 0.566514 0.528134 0.027332
C171  C     C_R   0.132061 0.439540 0.480507 0.017003
C172  C     C_R   0.897248 0.567939 0.430810 0.044425
C173  C     C_R   0.393404 0.934252 0.447998 0.028018
C174  C     C_R   0.605633 0.065972 0.557771 0.026557
C175  C     C_R   0.629734 0.944587 0.492515 0.009647
C176  C     C_R   0.369689 0.056408 0.511149 0.012224
C177  C     C_R   0.846891 0.434599 0.430402 -0.184256
C178  C     C_R   0.156388 0.564966 0.547303 -0.181191
C179  C     C_R   0.167790 0.437887 0.518382 -0.188109
C180  C     C_R   0.845832 0.566106 0.433434 -0.180890
C181  C     C_R   0.344992 0.934541 0.441690 -0.185415
C182  C     C_R   0.654183 0.065677 0.563898 -0.176362
C183  C     C_R   0.667622 0.939888 0.525119 -0.188150
C184  C     C_R   0.331928 0.060389 0.477990 -0.196830
C185  C     C_R   0.825848 0.500385 0.420495 0.102432
C186  C     C_R   0.174192 0.499176 0.559959 0.102233
C187  C     C_R   0.324333 0.000328 0.435628 0.120097
C188  C     C_R   0.675583 0.999357 0.568229 0.112062
H1    H     H_    0.088408 0.264778 0.377366 0.151079
H2    H     H_    0.962135 0.750999 0.476489 0.152334
H3    H     H_    0.003672 0.259806 0.367815 0.159644
H4    H     H_    0.027652 0.748095 0.532693 0.150454
H5    H     H_    0.597569 0.785774 0.355815 0.149415
H6    H     H_    0.402568 0.216432 0.646021 0.149595
H7    H     H_    0.512824 0.778839 0.347246 0.161199
H8    H     H_    0.486863 0.222616 0.656113 0.164866
H9    H     H_    0.150923 0.333793 0.410682 0.177398
H10   H     H_    0.915495 0.685530 0.409370 0.174482
H11   H     H_    0.920185 0.319957 0.387191 0.176999
H12   H     H_    0.082690 0.676218 0.577926 0.181201
H13   H     H_    0.654145 0.848219 0.406464 0.166859
H14   H     H_    0.346139 0.154393 0.594346 0.168063
H15   H     H_    0.424380 0.830813 0.380881 0.171796
H16   H     H_    0.574986 0.169727 0.624177 0.170314
H17   H     H_    0.613051 0.336944 0.779465 0.203147
H18   H     H_    0.387271 0.663887 0.219684 0.201892
H19   H     H_    0.388080 0.334594 0.219012 0.204523
H20   H     H_    0.611357 0.664328 0.779359 0.206757
H21   H     H_    0.113011 0.836580 0.780094 0.203025
H22   H     H_    0.887504 0.164836 0.219134 0.202735
H23   H     H_    0.888206 0.834502 0.218781 0.203456
H24   H     H_    0.111678 0.165376 0.780873 0.203731
H25   H     H_    0.616192 0.295814 0.169356 0.168447
H26   H     H_    0.377257 0.687802 0.833243 0.169909
H27   H     H_    0.380007 0.304691 0.831933 0.160248
H28   H     H_    0.615395 0.730244 0.162614 0.159576
H29   H     H_    0.122369 0.811561 0.167055 0.167265
H30   H     H_    0.877771 0.192309 0.832914 0.169631
H31   H     H_    0.888224 0.791084 0.827360 0.164020
H32   H     H_    0.118482 0.198014 0.168690 0.161645
H33   H     H_    0.817690 0.155109 0.797091 0.184773
H34   H     H_    0.184649 0.848747 0.198803 0.186739
H35   H     H_    0.177665 0.161176 0.204910 0.185156
H36   H     H_    0.851196 0.732156 0.766452 0.180592
H37   H     H_    0.314923 0.650532 0.801620 0.187648
H38   H     H_    0.674572 0.328468 0.208409 0.188713
H39   H     H_    0.667905 0.688890 0.212019 0.183541
H40   H     H_    0.320397 0.342351 0.796314 0.186915
O1    O     O_R   0.746490 0.236330 0.638080 -0.578700
O2    O     O_R   0.253510 0.763670 0.361920 -0.584235
O3    O     O_R   0.253510 0.236330 0.361920 -0.598607
O4    O     O_R   0.746490 0.763670 0.638080 -0.584183
O5    O     O_R   0.246490 0.736330 0.638080 -0.582444
O6    O     O_R   0.753510 0.263670 0.361920 -0.580114
O7    O     O_R   0.753510 0.736330 0.361920 -0.593881
O8    O     O_R   0.246490 0.263670 0.638080 -0.598295
O9    O     O_R   0.674170 0.186160 0.516270 -0.640165
O10   O     O_R   0.325830 0.813840 0.483730 -0.641714
O11   O     O_R   0.325830 0.186160 0.483730 -0.637811
O12   O     O_R   0.674170 0.813840 0.516270 -0.631551
O13   O     O_R   0.174170 0.686160 0.516270 -0.653339
O14   O     O_R   0.825830 0.313840 0.483730 -0.641885
O15   O     O_R   0.825830 0.686160 0.483730 -0.610688
O16   O     O_R   0.174170 0.313840 0.516270 -0.644912
O17   O     O_R   0.739960 0.127620 0.525000 -0.570726
O18   O     O_R   0.260040 0.872380 0.475000 -0.570416
O19   O     O_R   0.260040 0.127620 0.475000 -0.573228
O20   O     O_R   0.739960 0.872380 0.525000 -0.597072
O21   O     O_R   0.239960 0.627620 0.525000 -0.567447
O22   O     O_R   0.760040 0.372380 0.475000 -0.569677
O23   O     O_R   0.760040 0.627620 0.475000 -0.583965
O24   O     O_R   0.239960 0.372380 0.525000 -0.571508
O25   O     O_R   0.680700 0.294870 0.629350 -0.634196
O26   O     O_R   0.319300 0.705130 0.370650 -0.635568
O27   O     O_R   0.319300 0.294870 0.370650 -0.627112
O28   O     O_R   0.680700 0.705130 0.629350 -0.626040
O29   O     O_R   0.180700 0.794870 0.629350 -0.632918
O30   O     O_R   0.819300 0.205130 0.370650 -0.636901
O31   O     O_R   0.819300 0.794870 0.370650 -0.644260
O32   O     O_R   0.180700 0.205130 0.629350 -0.627772
O33   O     O_R   0.062020 0.072840 0.007170 -0.599550
O34   O     O_R   0.937980 0.927160 0.992830 -0.601554
O35   O     O_R   0.937980 0.072840 0.992830 -0.602515
O36   O     O_R   0.062020 0.927160 0.007170 -0.600837
O37   O     O_R   0.562020 0.572840 0.007170 -0.597069
O38   O     O_R   0.437980 0.427160 0.992830 -0.600163
O39   O     O_R   0.437980 0.572840 0.992830 -0.602959
O40   O     O_R   0.562020 0.427160 0.007170 -0.599191
O41   O     O_R   0.947860 0.073950 0.109290 -0.599737
O42   O     O_R   0.052140 0.926050 0.890710 -0.601842
O43   O     O_R   0.052140 0.073950 0.890710 -0.602267
O44   O     O_R   0.947860 0.926050 0.109290 -0.600819
O45   O     O_R   0.447860 0.573950 0.109290 -0.604033
O46   O     O_R   0.552140 0.426050 0.890710 -0.598382
O47   O     O_R   0.552140 0.573950 0.890710 -0.600320
O48   O     O_R   0.447860 0.426050 0.109290 -0.602586
Zn1   Zn    Zn3+2 0.792340 0.208750 0.507670 1.048953
Zn2   Zn    Zn3+2 0.207660 0.791250 0.492330 1.045332
Zn3   Zn    Zn3+2 0.207660 0.208750 0.492330 1.052266
Zn4   Zn    Zn3+2 0.792340 0.791250 0.507670 1.034302
Zn5   Zn    Zn3+2 0.292340 0.708750 0.507670 1.055703
Zn6   Zn    Zn3+2 0.707660 0.291250 0.492330 1.062026
Zn7   Zn    Zn3+2 0.707660 0.708750 0.492330 1.066352
Zn8   Zn    Zn3+2 0.292340 0.291250 0.507670 1.057549
Zn9   Zn    Zn3+2 0.505960 0.500000 0.080520 1.029231
Zn10  Zn    Zn3+2 0.494040 0.500000 0.919480 1.029553
Zn11  Zn    Zn3+2 0.005960 0.000000 0.080520 1.023509
Zn12  Zn    Zn3+2 0.994040 0.000000 0.919480 1.023334
I1    I     I_    0.777955 0.502186 0.356218 -0.079713
I2    I     I_    0.182922 0.491188 0.675513 -0.099728
I3    I     I_    0.316381 0.012159 0.319987 -0.100764
I4    I     I_    0.698767 0.985819 0.668740 -0.178308
I5    I     I_    0.521718 0.299792 0.137199 -0.337452
I6    I     I_    0.474511 0.695341 0.859285 -0.335565
I7    I     I_    0.475925 0.301604 0.861310 -0.381739
I8    I     I_    0.522614 0.713688 0.125424 -0.384724
I9    I     I_    0.025199 0.804468 0.140825 -0.368381
I10   I     I_    0.973948 0.197561 0.861535 -0.332497
I11   I     I_    0.980151 0.797576 0.864676 -0.361360
I12   I     I_    0.022922 0.199008 0.138581 -0.381200
Cl1   Cl    Cl    0.757299 0.121658 0.720339 -0.567755
Cl2   Cl    Cl    0.246376 0.879940 0.275806 -0.532327
Cl3   Cl    Cl    0.235985 0.124567 0.282730 -0.528925
Cl4   Cl    Cl    0.817801 0.666012 0.658870 -0.630303
Cl5   Cl    Cl    0.253270 0.619737 0.724325 -0.527461
Cl6   Cl    Cl    0.736638 0.370607 0.276346 -0.535615
Cl7   Cl    Cl    0.728342 0.634970 0.279446 -0.533384
Cl8   Cl    Cl    0.261220 0.377546 0.718426 -0.523745

loop_
_geom_bond_atom_site_label_1
_geom_bond_atom_site_label_2
_ccdc_geom_bond_type
C154  H3    S    
C85   C182  S    
O45   Zn9   S    
C7    O31   A    
C34   C42   A    
C128  H36   S    
C181  C187  A    
C90   O22   A    
C27   C99   A    
C170  C178  A    
C4    O4    A    
C12   C174  A    
C42   C109  A    
C111  H27   S    
C24   C96   A    
C149  H8    S    
C133  O43   A    
C30   C38   A    
C9    C169  A    
O39   Zn10  S    
O12   Zn7   S    
C67   H23   S    
C147  C155  A    
C143  C151  A    
C90   C177  S    
C11   C167  A    
C82   C98   A    
C149  C151  A    
C76   C84   A    
C2    O26   A    
C73   C81   A    
C161  C163  A    
C162  C164  A    
O48   Zn9   S    
C84   C100  A    
C185  I1    S    
C57   C65   A    
C37   C114  A    
C27   C35   A    
C10   C171  A    
C21   C29   A    
C137  O47   A    
O7    Zn7   S    
C81   C121  A    
C23   C31   A    
C24   C32   A    
C146  C154  A    
O30   Zn1   S    
C19   H15   S    
C17   H13   S    
C106  I10   S    
C89   O21   A    
C63   C71   A    
C36   C44   A    
C10   C170  A    
C175  C183  A    
C176  C184  A    
C139  O39   A    
C121  Cl5   S    
C48   C96   A    
C87   O19   A    
O3    Zn3   S    
C148  C162  A    
O4    Zn4   S    
C183  C188  A    
C101  I5    S    
C108  C116  A    
C21   C93   A    
C78   C94   A    
O1    Zn1   S    
C86   O10   A    
C23   C95   A    
C49   C97   A    
C21   C42   A    
C40   C115  A    
C130  H38   S    
C51   C107  A    
C24   C43   A    
C82   C122  A    
C161  C165  A    
C17   C175  A    
O33   Zn11  S    
C18   C176  A    
O34   Zn12  S    
C29   C125  A    
C69   C77   A    
C31   C127  A    
C45   C93   A    
C174  C182  A    
C71   C79   A    
O43   Zn12  S    
C179  C186  A    
C133  O33   A    
C118  Cl2   S    
C11   C176  A    
C13   H9    S    
O2    Zn2   S    
C17   C144  A    
C151  H6    S    
C105  C113  A    
C18   C143  A    
C78   C118  A    
C36   C132  A    
C134  O44   A    
C66   C74   A    
C135  O41   A    
C49   C57   A    
C124  C132  A    
C52   C60   A    
C59   C67   A    
C53   C61   A    
C141  C159  A    
C20   C174  A    
C55   C63   A    
C86   C181  S    
C56   C64   A    
O46   Zn10  S    
C116  H32   S    
C35   C43   A    
C16   H12   S    
O37   Zn9   S    
C156  H1    S    
C6    O6    A    
C45   C53   A    
C85   O17   A    
C22   C94   A    
C171  C179  A    
C114  H30   S    
C169  C177  A    
C92   O24   A    
C50   C98   A    
C87   O11   A    
C3    O3    A    
C104  C112  A    
O32   Zn3   S    
O23   Zn7   S    
C145  C163  A    
C146  C164  A    
C14   C147  A    
C52   C100  A    
O16   Zn3   S    
C16   C145  A    
C178  C186  A    
C8    O32   A    
C16   C170  A    
C25   C38   A    
C88   O20   A    
C54   C139  S    
C46   C94   A    
C27   C40   A    
C10   C166  A    
C91   C180  S    
C5    O29   A    
C182  C188  A    
C89   C178  S    
O9    Zn6   S    
C60   C68   A    
C25   C97   A    
C90   O14   A    
C124  Cl8   S    
C67   C75   A    
C4    O28   A    
C29   C37   A    
C68   H24   S    
C22   C30   A    
O28   Zn7   S    
C20   C141  A    
C15   C146  A    
C103  I7    S    
C125  H33   S    
C58   C135  S    
C68   C76   A    
O11   Zn8   S    
C59   C134  S    
C184  C187  A    
C119  Cl3   S    
C32   C128  A    
C72   C80   A    
C107  I11   S    
C56   C137  S    
C62   H18   S    
C150  C152  A    
C112  H28   S    
O19   Zn3   S    
C150  H7    S    
O20   Zn4   S    
C2    O2    A    
C13   C171  A    
C51   C59   A    
C129  H37   S    
C122  Cl6   S    
C139  O45   A    
C83   C99   A    
C117  C125  A    
C25   C33   A    
C119  C127  A    
O40   Zn9   S    
O5    Zn5   S    
O8    Zn8   S    
C157  C167  A    
C80   C120  A    
C158  C168  A    
C102  I6    S    
C91   O23   A    
O44   Zn11  S    
O21   Zn5   S    
C164  C165  A    
C132  H40   S    
C22   C41   A    
C136  O36   A    
C101  C109  A    
C88   O12   A    
C177  C185  A    
C103  C111  A    
C188  I4    S    
C162  C166  A    
O6    Zn6   S    
C79   C119  A    
C140  O40   A    
C153  C155  A    
C154  C156  A    
C172  C180  A    
C173  C181  A    
C157  C159  A    
C63   H19   S    
C158  C160  A    
C74   C82   A    
O13   Zn2   S    
C1    O25   A    
C6    C74   S    
C7    O7    A    
C47   C103  A    
C50   C58   A    
C163  C166  A    
C20   H16   S    
C147  C161  A    
O42   Zn12  S    
C38   C113  A    
C49   C105  A    
C54   C62   A    
C28   C39   A    
C1    C69   S    
C23   C44   A    
C3    C71   S    
C19   C173  A    
C79   C95   A    
C92   C179  S    
C64   H20   S    
O38   Zn10  S    
C46   C54   A    
C18   H14   S    
C45   C101  A    
C8    O8    A    
C19   C142  A    
C102  C110  A    
C35   C131  A    
C4    C72   S    
O25   Zn6   S    
C33   C129  A    
O35   Zn12  S    
C123  C131  A    
C121  C129  A    
O15   Zn4   S    
C120  C128  A    
C26   C37   A    
C104  I8    S    
C77   C117  A    
C6    O30   A    
C33   C41   A    
C142  C150  A    
C9    C165  A    
O10   Zn5   S    
C75   C83   A    
C77   C93   A    
C85   O9    A    
C187  I3    S    
C44   C111  A    
C131  H39   S    
C28   C36   A    
C144  C152  A    
C39   C116  A    
C117  Cl1   S    
C50   C106  A    
C9    C172  A    
C148  C156  A    
O14   Zn1   S    
C83   C123  A    
C2    C70   S    
O47   Zn10  S    
C60   C133  S    
C120  Cl4   S    
C110  H26   S    
C30   C126  A    
C135  O35   A    
C70   C78   A    
C53   C140  S    
C8    C76   S    
C141  C149  A    
C14   H10   S    
C55   C138  S    
C152  H5    S    
C106  C114  A    
C155  H2    S    
C109  H25   S    
O24   Zn8   S    
C48   C104  A    
C65   C73   A    
C159  C168  A    
C15   C169  A    
C123  Cl7   S    
C160  C167  A    
C140  O46   A    
O18   Zn2   S    
C137  O37   A    
C26   C34   A    
O27   Zn8   S    
C57   C136  S    
C80   C96   A    
C65   H21   S    
C127  H35   S    
C145  C153  A    
C28   C100  A    
C32   C40   A    
C52   C108  A    
O29   Zn2   S    
C86   O18   A    
C5    O5    A    
C5    C73   S    
O22   Zn6   S    
C62   C70   A    
C115  H31   S    
O31   Zn4   S    
C105  I9    S    
C113  H29   S    
C58   C66   A    
C143  C157  A    
C108  I12   S    
C51   C99   A    
C11   C173  A    
C14   C172  A    
C87   C184  S    
C88   C183  S    
C7    C75   S    
C138  O38   A    
C138  O48   A    
C15   H11   S    
C186  I2    S    
C107  C115  A    
C26   C98   A    
C12   C175  A    
C91   O15   A    
C41   C110  A    
C89   O13   A    
C66   H22   S    
C43   C112  A    
C144  C158  A    
C47   C55   A    
C61   C69   A    
C48   C56   A    
O36   Zn11  S    
O41   Zn11  S    
C142  C160  A    
C12   C168  A    
O17   Zn1   S    
C126  H34   S    
C84   C124  A    
C92   O16   A    
C81   C97   A    
C31   C39   A    
C64   C72   A    
C3    O27   A    
C180  C185  A    
O26   Zn5   S    
C1    O1    A    
C34   C130  A    
C134  O34   A    
C61   H17   S    
C47   C95   A    
C136  O42   A    
C118  C126  A    
C13   C148  A    
C122  C130  A    
C46   C102  A    
C153  H4    S    
