data_mof_unit_pretest_1039.cif
_audit_creation_date              2012-12-10T17:47:11-0500
_audit_creation_method            fapswitch 2.2
_symmetry_space_group_name_H-M    P1
_symmetry_Int_Tables_number       1
_space_group_crystal_system       triclinic
_cell_length_a                    11.700459
_cell_length_b                    14.703308
_cell_length_c                    14.563667
_cell_angle_alpha                 65.277826
_cell_angle_beta                  103.001352
_cell_angle_gamma                 102.575006
_cell_volume                      2195.75033573

loop_
_atom_site_label
_atom_site_type_symbol
_atom_type_description
_atom_site_fract_x
_atom_site_fract_y
_atom_site_fract_z
_atom_type_partial_charge
C1    C     C_R   0.482964 0.119557 0.311292 0.825794
C2    C     C_R   0.515820 0.880669 0.688397 0.823522
C3    C     C_R   0.454567 0.323316 0.994099 0.024547
C4    C     C_R   0.489813 0.676566 0.999337 0.026569
C5    C     C_R   0.471215 0.465031 0.048300 0.060979
C6    C     C_R   0.476954 0.534718 0.946429 0.058890
C7    C     C_R   0.460824 0.496693 0.869319 -0.334404
C8    C     C_R   0.467122 0.502629 0.122214 -0.336112
C9    C     C_R   0.449632 0.393193 0.891449 0.436019
C10   C     C_R   0.477064 0.606167 0.099493 0.439462
C11   C     C_R   0.697854 0.284238 0.668300 -0.249216
C12   C     C_R   0.298823 0.713809 0.334742 -0.217162
C13   C     C_R   0.662569 0.201236 0.641083 0.090878
C14   C     C_R   0.336164 0.798012 0.359891 0.081090
C15   C     C_R   0.517677 0.286418 0.508554 0.076827
C16   C     C_R   0.481581 0.713204 0.492154 0.015798
C17   C     C_R   0.541737 0.370074 0.538539 -0.025552
C18   C     C_R   0.456494 0.628967 0.463304 -0.057936
C19   C     C_R   0.640565 0.370948 0.615110 0.096297
C20   C     C_R   0.355701 0.627062 0.388797 0.157754
C21   C     C_R   0.475144 0.453871 0.492568 0.011568
C22   C     C_R   0.523382 0.545280 0.509216 -0.061024
C23   C     C_R   0.284158 0.000367 0.500080 0.817561
C24   C     C_R   0.715847 0.999611 0.499957 0.815843
C25   C     C_R   0.637581 0.549740 0.569798 0.093271
C26   C     C_R   0.361190 0.448876 0.432527 0.067431
C27   C     C_R   0.686757 0.460120 0.632227 0.181229
C28   C     C_R   0.308136 0.537242 0.374005 0.103887
C29   C     C_1   0.162678 0.000882 0.500270 -0.170905
C30   C     C_1   0.837337 0.999068 0.499818 -0.178414
C31   C     C_1   0.060053 0.000430 0.500175 0.007256
C32   C     C_1   0.939967 0.999507 0.499940 0.005640
C33   C     C_R   0.473472 0.186468 0.201099 -0.121578
C34   C     C_R   0.513555 0.814581 0.797454 -0.115960
C35   C     C_R   0.446605 0.217816 0.019598 0.404865
C36   C     C_R   0.499460 0.782266 0.973343 0.409295
C37   C     C_R   0.463051 0.149949 0.123541 0.031221
C38   C     C_R   0.500264 0.850476 0.870021 0.024819
C39   C     C_R   0.477143 0.289640 0.174808 -0.278336
C40   C     C_R   0.515859 0.711895 0.826477 -0.272311
C41   C     C_R   0.466841 0.359582 0.072886 -0.027803
C42   C     C_R   0.493264 0.640639 0.923388 -0.027199
Cu1   Cu    Cu3+1 0.469550 0.918260 0.475690 0.948229
Cu2   Cu    Cu3+1 0.530450 0.081740 0.524310 0.953473
H1    H     H_    0.535641 0.689156 0.771030 0.163371
H2    H     H_    0.493475 0.314264 0.236906 0.173388
H3    H     H_    0.451435 0.545967 0.789553 0.139819
H4    H     H_    0.450358 0.453065 0.198249 0.129472
H5    H     H_    0.543598 0.713469 0.558589 0.129403
H6    H     H_    0.456611 0.286402 0.441317 0.153217
H7    H     H_    0.292156 0.864470 0.318466 0.140954
H8    H     H_    0.706869 0.134906 0.682098 0.138049
H9    H     H_    0.771817 0.280653 0.729065 0.165911
H10   H     H_    0.224144 0.716438 0.274698 0.179333
N1    N     N_R   0.576230 0.204580 0.560790 -0.191346
N2    N     N_R   0.423770 0.795420 0.439210 -0.178915
O1    O     O_R   0.459870 0.022090 0.338120 -0.556913
O2    O     O_R   0.540130 0.977910 0.661880 -0.558683
O3    O     O_R   0.511290 0.160150 0.379180 -0.601909
O4    O     O_R   0.488710 0.839850 0.620820 -0.595910
O5    O     O_R   0.311490 0.930960 0.479480 -0.575926
O6    O     O_R   0.688510 0.069040 0.520520 -0.576987
O7    O     O_R   0.362910 0.069020 0.520540 -0.567619
O8    O     O_R   0.637090 0.930980 0.479460 -0.577998
O9    O     O_3   0.436024 0.359886 0.813138 -0.660776
H11   H     H_    0.437762 0.418346 0.746553 0.313367
O10   O     O_3   0.473174 0.639103 0.174769 -0.659878
H12   H     H_    0.474107 0.581314 0.241864 0.313073
N3    N     N_3   0.715351 0.643551 0.555301 -0.591266
H13   H     H_    0.714675 0.667992 0.612975 0.200730
H14   H     H_    0.695485 0.698723 0.482300 0.245627
N4    N     N_3   0.293458 0.353123 0.438408 -0.606961
H15   H     H_    0.216563 0.343155 0.468697 0.238862
H16   H     H_    0.269703 0.352677 0.364955 0.206441
N5    N     N_3   0.481521 0.954040 0.837218 -0.549425
H17   H     H_    0.404527 0.964560 0.783224 0.231238
H18   H     H_    0.461496 0.968290 0.895792 0.233896
N6    N     N_3   0.476781 0.046035 0.151245 -0.554154
H19   H     H_    0.561101 0.035357 0.193902 0.229513
H20   H     H_    0.478659 0.030634 0.087973 0.233119
O11   O     O_3   0.423627 0.182261 0.942419 -0.669671
H21   H     H_    0.364164 0.120726 0.961675 0.319123
O12   O     O_3   0.505326 0.817395 0.048812 -0.670520
H22   H     H_    0.562960 0.880225 0.034636 0.317007
N7    N     N_3   0.790816 0.460612 0.707412 -0.580681
H23   H     H_    0.820965 0.532102 0.709230 0.243824
H24   H     H_    0.765849 0.415219 0.779237 0.214035
N8    N     N_3   0.201489 0.534768 0.302681 -0.598361
H25   H     H_    0.134748 0.483004 0.341735 0.223878
H26   H     H_    0.218018 0.511496 0.248767 0.231147

loop_
_geom_bond_atom_site_label_1
_geom_bond_atom_site_label_2
_ccdc_geom_bond_type
C14   N2    A    
C21   C26   A    
C4    C36   A    
C26   N4    S    
Cu1   Cu2   S    
C16   N2    A    
O11   H21   S    
C35   O11   S    
C1    C33   S    
C39   C41   A    
C10   O10   S    
C11   C19   A    
C33   C39   A    
C34   C40   A    
C23   C29   S    
C35   C37   A    
C1    O3    A    
C5    C6    A    
C2    O4    A    
C36   O12   S    
C27   N7    S    
C15   H6    S    
N3    H14   S    
C14   H7    S    
Cu2   O2    S    
C22   C25   A    
C28   N8    S    
C19   C27   A    
C18   C20   A    
C11   H9    S    
C2    C34   S    
C40   C42   A    
C24   O8    A    
C34   C38   A    
C21   C22   A    
Cu1   O8    S    
C9    O9    S    
C38   N5    S    
N7    H24   S    
Cu2   O7    S    
C40   H1    S    
O10   H12   S    
C16   H5    S    
N4    H16   S    
N6    H19   S    
C20   C28   A    
Cu2   O6    S    
N7    H23   S    
C33   C37   A    
C15   N1    A    
N5    H17   S    
C8    H4    S    
C3    C9    A    
C1    O1    A    
C13   H8    S    
O12   H22   S    
C3    C35   A    
C12   C20   A    
N5    H18   S    
Cu1   O4    S    
C39   H2    S    
C16   C18   A    
N8    H26   S    
C25   N3    S    
C4    C10   A    
Cu1   O5    S    
C15   C17   A    
C5    C41   A    
C3    C41   A    
C24   O6    A    
C18   C22   A    
C31   C32   S    
C12   C14   A    
N4    H15   S    
C5    C8    A    
C2    O2    A    
C6    C7    A    
C25   C27   A    
C37   N6    S    
C26   C28   A    
C36   C38   A    
C29   C31   T    
C30   C32   T    
C11   C13   A    
Cu2   N1    S    
C4    C42   A    
C23   O7    A    
C17   C19   A    
N6    H20   S    
N3    H13   S    
C24   C30   S    
Cu1   O1    S    
C7    C9    A    
Cu1   N2    S    
C23   O5    A    
N8    H25   S    
C8    C10   A    
O9    H11   S    
C6    C42   A    
Cu2   O3    S    
C12   H10   S    
C7    H3    S    
C13   N1    A    
C17   C21   A    
