data_mof_unit_pretest_462.cif
_audit_creation_date              2012-12-11T17:45:29-0500
_audit_creation_method            fapswitch 2.2
_symmetry_space_group_name_H-M    P1
_symmetry_Int_Tables_number       1
_space_group_crystal_system       triclinic
_cell_length_a                    15.048427
_cell_length_b                    14.899292
_cell_length_c                    14.907911
_cell_angle_alpha                 110.185752
_cell_angle_beta                  109.935961
_cell_angle_gamma                 108.361388
_cell_volume                      2570.29084946

loop_
_atom_site_label
_atom_site_type_symbol
_atom_type_description
_atom_site_fract_x
_atom_site_fract_y
_atom_site_fract_z
_atom_type_partial_charge
C1    C     C_R   0.973653 0.248316 0.063258 -0.106984
C2    C     C_R   0.707986 0.192067 0.792394 -0.133182
C3    C     C_R   0.775810 0.591344 0.024860 0.683501
C4    C     C_R   0.314994 0.763626 0.224189 -0.094968
C5    C     C_R   0.934237 0.406549 0.683587 -0.128873
C6    C     C_R   0.673310 0.500250 0.947984 -0.103549
C7    C     C_R   0.943054 0.497490 0.672934 0.073232
C8    C     C_R   0.712897 0.127440 0.702287 0.066159
C9    C     C_R   0.072909 0.873777 0.082240 0.068194
C10   C     C_R   0.614703 0.187521 0.064183 0.632534
C11   C     C_R   0.670669 0.285059 0.166151 -0.466019
C12   C     C_R   0.329479 0.801149 0.330351 0.061128
C13   C     C_R   0.740963 0.292784 0.262978 0.099595
C14   C     C_R   0.747833 0.199056 0.256940 -0.271965
C15   C     C_R   0.689555 0.101101 0.155501 -0.390221
C16   C     C_R   0.208044 0.407818 0.902220 -0.156690
C17   C     C_R   0.624558 0.095870 0.058912 0.792744
C18   C     C_R   0.826464 0.405237 0.467510 -0.237387
C19   C     C_R   0.906421 0.501306 0.569539 -0.000905
C20   C     C_R   0.961044 0.598273 0.570268 0.153554
C21   C     C_R   0.928350 0.596917 0.470361 -0.055406
C22   C     C_R   0.878529 0.497413 0.372521 -0.048511
C23   C     C_R   0.298019 0.498387 0.929567 0.046797
C24   C     C_R   0.814721 0.400244 0.367745 0.106995
C25   C     C_R   0.093591 0.792132 0.731138 0.734903
C26   C     C_R   0.195956 0.867363 0.825945 -0.513091
C27   C     C_R   0.277224 0.838960 0.853122 0.852674
C28   C     C_R   0.984082 0.589353 0.293815 -0.022770
C29   C     C_R   0.257162 0.734647 0.785430 -0.333491
C30   C     C_R   0.155053 0.658255 0.691695 -0.210144
C31   C     C_R   0.071835 0.685962 0.663801 -0.016916
C32   C     C_R   0.251368 0.974080 0.595526 -0.363760
C33   C     C_R   0.343362 0.985910 0.587514 -0.198472
C34   C     C_R   0.919625 0.497909 0.293969 0.113414
C35   C     C_R   0.364865 0.898112 0.564241 0.021036
C36   C     C_R   0.301953 0.803851 0.558830 -0.301557
C37   C     C_R   0.205928 0.788386 0.556338 0.580191
C38   C     C_R   0.179777 0.873559 0.575570 0.593436
C39   C     C_R   0.552480 0.962008 0.633671 -0.190329
C40   C     C_R   0.297752 0.590089 0.994027 -0.155191
C41   C     C_R   0.640397 0.009058 0.623291 0.024163
C42   C     C_R   0.634403 0.956079 0.520764 0.047662
C43   C     C_R   0.531983 0.881813 0.426093 -0.232011
C44   C     C_R   0.437308 0.862322 0.433710 0.056936
C45   C     C_R   0.685883 0.408261 0.932394 -0.220288
C46   C     C_R   0.450917 0.902491 0.541186 0.080156
C47   C     C_R   0.750113 0.025982 0.447492 -0.196958
C48   C     C_R   0.854164 0.076184 0.463192 -0.130795
C49   C     C_R   0.940346 0.077361 0.540170 -0.127159
C50   C     C_R   0.921873 0.024272 0.598166 -0.084202
C51   C     C_R   0.818821 0.976022 0.584696 -0.126522
C52   C     C_R   0.903357 0.408625 0.206744 -0.136181
C53   C     C_R   0.733138 0.980056 0.512191 0.098220
C54   C     C_3   0.469383 0.392339 0.831729 -0.344920
C55   C     C_3   0.365190 0.392093 0.825769 -0.425210
C56   C     C_R   0.011519 0.588348 0.779029 -0.118580
C57   C     C_3   0.569834 0.511138 0.040470 -0.534283
C58   C     C_3   0.563372 0.597789 0.920812 0.688146
C59   C     C_3   0.571076 0.500604 0.933896 0.226405
C60   C     C_3   0.394420 0.498944 0.924997 0.323330
C61   C     C_3   0.466857 0.510072 0.035159 -0.398807
C62   C     C_3   0.458538 0.596543 0.915428 -0.564237
C63   C     C_R   0.212072 0.106169 0.834926 -0.189428
C64   C     C_R   0.224497 0.766630 0.316676 -0.118218
C65   C     C_R   0.158722 0.095175 0.894122 -0.170401
C66   C     C_R   0.217249 0.155566 0.010509 0.161361
C67   C     C_R   0.798599 0.196115 0.702207 -0.138055
C68   C     C_R   0.329101 0.227051 0.066539 -0.092157
C69   C     C_R   0.382208 0.235678 0.006884 -0.057445
C70   C     C_R   0.324132 0.173827 0.891341 -0.030765
C71   C     C_R   0.179755 0.048193 0.096626 0.698859
C72   C     C_R   0.111875 0.993399 0.126893 -0.123508
C73   C     C_R   0.065097 0.048283 0.176652 -0.022377
C74   C     C_R   0.062487 0.136182 0.164879 -0.235581
C75   C     C_R   0.098325 0.165409 0.098518 0.002481
C76   C     C_R   0.069959 0.254646 0.977366 -0.159977
C77   C     C_R   0.166428 0.127145 0.072368 -0.175103
C78   C     C_R   0.006831 0.805182 0.102411 -0.027575
C79   C     C_R   0.897243 0.967398 0.184108 -0.129751
C80   C     C_R   0.842401 0.915310 0.225867 -0.032159
C81   C     C_R   0.899957 0.907029 0.315763 -0.002448
C82   C     C_R   0.013127 0.957591 0.369040 -0.174579
C83   C     C_R   0.068814 0.011716 0.329024 -0.214254
C84   C     C_R   0.010349 0.011978 0.232834 0.136505
C85   C     C_R   0.052478 0.223405 0.050516 0.110626
C86   C     C_R   0.097610 0.807751 0.013243 -0.089422
F1    F     F_    0.799649 0.696856 0.077346 -0.771500
F2    F     F_    0.573277 0.002683 0.959762 -0.647935
F3    F     F_    0.555045 0.183328 0.969669 -0.721252
F4    F     F_    0.014065 0.819650 0.709699 -0.678918
F5    F     F_    0.374483 0.911815 0.947134 -0.633987
F6    F     F_    0.084157 0.858905 0.569556 -0.724429
F7    F     F_    0.134545 0.684842 0.517656 -0.746019
F8    F     F_    0.564914 0.591059 0.826300 -0.681184
F9    F     F_    0.252832 0.019257 0.081684 -0.711947
H1    H     H_    0.938945 0.235699 0.113065 0.091752
H2    H     H_    0.697448 0.030245 0.151426 0.178795
H3    H     H_    0.780444 0.331689 0.465889 0.138979
H4    H     H_    0.964517 0.672277 0.471879 0.218498
H5    H     H_    0.212052 0.946647 0.881476 0.251774
H6    H     H_    0.319814 0.712112 0.806696 0.183645
H7    H     H_    0.139638 0.576472 0.641353 0.191236
H8    H     H_    0.232662 0.040398 0.610764 0.155023
H9    H     H_    0.395339 0.061048 0.595397 0.156094
H10   H     H_    0.319215 0.736374 0.540446 0.189597
H11   H     H_    0.559144 0.990206 0.714253 0.172531
H12   H     H_    0.025928 0.670614 0.804785 0.105612
H13   H     H_    0.528033 0.844502 0.347578 0.122625
H14   H     H_    0.685442 0.030751 0.391906 0.134907
H15   H     H_    0.868665 0.115503 0.416931 0.118700
H16   H     H_    0.021109 0.117871 0.553501 0.117603
H17   H     H_    0.987922 0.023437 0.656148 0.148542
H18   H     H_    0.001627 0.672593 0.340817 0.108255
H19   H     H_    0.807226 0.941178 0.635349 0.141207
H20   H     H_    0.469162 0.320026 0.837007 0.155905
H21   H     H_    0.469144 0.382690 0.754242 0.202666
H22   H     H_    0.314728 0.385024 0.746411 0.172055
H23   H     H_    0.836392 0.175642 0.655232 0.129889
H24   H     H_    0.575456 0.442735 0.051705 0.200837
H25   H     H_    0.422171 0.441258 0.043770 0.177644
H26   H     H_    0.632102 0.677956 0.992306 0.097562
H27   H     H_    0.407046 0.589692 0.836611 0.212455
H28   H     H_    0.351499 0.674633 0.023737 0.114274
H29   H     H_    0.481819 0.676149 0.984156 0.135711
H30   H     H_    0.641174 0.588897 0.114694 0.187950
H31   H     H_    0.489285 0.587409 0.106773 0.165936
H32   H     H_    0.365749 0.177484 0.845242 0.150009
H33   H     H_    0.072793 0.037438 0.849884 0.173944
H34   H     H_    0.155615 0.833731 0.988311 0.177480
H35   H     H_    0.375728 0.271973 0.156167 0.122662
H36   H     H_    0.468715 0.288880 0.050621 0.138523
H37   H     H_    0.023136 0.174264 0.200095 0.136476
H38   H     H_    0.853342 0.323226 0.175185 0.106155
H39   H     H_    0.851203 0.968078 0.110673 0.135900
H40   H     H_    0.754994 0.878281 0.186403 0.106195
H41   H     H_    0.857001 0.863548 0.345799 0.131041
H42   H     H_    0.057251 0.953047 0.440074 0.167506
H43   H     H_    0.156076 0.046632 0.368108 0.138721
H44   H     H_    0.199480 0.783992 0.376412 0.109821
H45   H     H_    0.658648 0.164366 0.825608 0.144237
H46   H     H_    0.129340 0.256444 0.953325 0.120908
H47   H     H_    0.624209 0.322961 0.882667 0.175222
H48   H     H_    0.984758 0.826791 0.164010 0.179580
H49   H     H_    0.178338 0.322675 0.845699 0.096561
H50   H     H_    0.317261 0.318764 0.826097 0.154016
H51   H     H_    0.167520 0.058540 0.745616 0.179740
H52   H     H_    0.886103 0.321422 0.618619 0.102205
H53   H     H_    0.665040 0.356522 0.168750 0.171655
H54   H     H_    0.375925 0.776232 0.200398 0.097196
H55   H     H_    0.802039 0.203204 0.329860 0.153316
N1    N     N_R   0.947080 0.293830 0.002870 -0.042192
N2    N     N_R   0.153670 0.443180 0.946090 -0.037846
N3    N     N_R   0.002360 0.556820 0.208890 -0.060669
N4    N     N_R   0.210070 0.556820 0.002870 -0.036816
N5    N     N_R   0.945960 0.443180 0.152110 -0.048826
N6    N     N_R   0.151710 0.706170 0.208890 -0.053994
N7    N     N_R   0.004320 0.293830 0.946090 -0.043352
N8    N     N_R   0.789930 0.443180 0.997130 -0.070594
N9    N     N_R   0.054040 0.556820 0.847890 -0.044627
N10   N     N_R   0.848290 0.293830 0.791110 -0.042046
N11   N     N_R   0.995680 0.706170 0.053910 -0.056590
N12   N     N_R   0.052920 0.706170 0.997130 -0.064728
N13   N     N_R   0.791050 0.293830 0.847890 -0.036306
N14   N     N_R   0.846330 0.556820 0.053910 -0.108942
N15   N     N_R   0.997640 0.443180 0.791110 -0.041573
N16   N     N_R   0.208950 0.706170 0.152110 -0.043399
Ni1   Ni    Ni4+2 0.869690 0.369690 0.000000 0.223091
Ni2   Ni    Ni4+2 0.130310 0.630310 0.000000 0.228147
Ni3   Ni    Ni4+2 0.000970 0.369690 0.869780 0.212870
Ni4   Ni    Ni4+2 0.999030 0.630310 0.130220 0.227036

loop_
_geom_bond_atom_site_label_1
_geom_bond_atom_site_label_2
_ccdc_geom_bond_type
C70   H32   S    
C25   C31   A    
C39   H11   S    
C66   C68   A    
C63   C65   A    
C58   C62   S    
C5    H52   S    
C6    C45   A    
C74   H37   S    
C27   C29   A    
C33   H9    S    
C41   C42   A    
C48   H15   S    
C35   C36   A    
C9    C72   S    
C62   H27   S    
C3    C6    A    
N4    Ni2   S    
C62   H29   S    
N11   N12   A    
C39   C41   A    
C52   N5    A    
C4    H54   S    
C25   F4    S    
C29   C30   A    
C80   H40   S    
C18   C24   A    
N1    N7    A    
C36   C37   A    
C16   H49   S    
C82   H42   S    
C32   C38   A    
C42   C53   S    
C57   H30   S    
C79   C84   A    
C12   C64   A    
N1    Ni1   S    
C11   H53   S    
C57   C59   S    
C71   F9    S    
C10   C17   A    
C23   C40   A    
C17   F2    S    
C38   F6    S    
N9    Ni2   S    
C60   C62   S    
C18   C19   A    
C73   C74   A    
C79   H39   S    
C57   H24   S    
C13   C14   A    
N7    Ni3   S    
N14   Ni4   S    
C75   C85   S    
C83   C84   A    
C10   F3    S    
N5    Ni1   S    
C68   C69   A    
C54   H21   S    
N3    Ni4   S    
N10   Ni3   S    
C27   F5    S    
C67   N10   A    
C86   N12   A    
C5    N15   A    
C4    C12   A    
C73   C84   S    
N8    N14   A    
C47   C53   A    
C76   H46   S    
C28   C34   A    
C55   C60   S    
C61   H25   S    
N16   Ni2   S    
C52   H38   S    
C40   N4    A    
C7    C56   A    
C15   H2    S    
C37   F7    S    
C44   C46   A    
N8    Ni1   S    
C81   C82   A    
C54   C59   S    
N15   Ni3   S    
C23   C60   S    
C22   C34   S    
C76   N7    A    
C51   H19   S    
C74   C75   A    
C3    F1    S    
C65   H33   S    
C8    C41   S    
C28   H18   S    
C5    C7    A    
C72   C73   A    
C25   C26   A    
C47   H14   S    
C82   C83   A    
N9    N15   A    
C13   C24   S    
C60   C61   S    
C51   C53   A    
N13   Ni1   S    
C43   C44   A    
N10   N13   A    
C56   H12   S    
C37   C38   A    
C9    C86   A    
C47   C48   A    
C63   C70   A    
N6    N16   A    
C69   H36   S    
C54   H20   S    
C14   H55   S    
C50   H17   S    
C50   C51   A    
C26   C27   A    
C32   H8    S    
C29   H6    S    
C16   N2    A    
C68   H35   S    
C75   C77   A    
C61   H31   S    
C30   H7    S    
C8    C67   A    
C39   C46   A    
N12   Ni2   S    
N11   Ni4   S    
C3    N14   A    
C48   C49   A    
N2    N4    A    
C65   C66   A    
C16   C23   A    
C7    C19   S    
C28   N3    A    
C22   C24   A    
C1    C85   A    
N3    N5    A    
C42   C43   A    
C71   C77   A    
C81   H41   S    
C55   H22   S    
C15   C17   A    
C40   H28   S    
C54   C55   S    
C58   H26   S    
C63   H51   S    
C36   H10   S    
C6    C59   S    
C2    C8    A    
C45   N8    A    
C80   C81   A    
C2    N13   A    
C86   H34   S    
C57   C61   S    
C56   N9    A    
C64   N6    A    
C34   C52   A    
C49   H16   S    
C2    H45   S    
C32   C33   A    
C19   C20   A    
C58   C59   S    
C71   C72   A    
C12   C44   S    
C78   H48   S    
N2    Ni3   S    
C11   C13   A    
C30   C31   A    
C1    H1    S    
C21   H4    S    
N6    Ni4   S    
C33   C35   A    
C4    N16   A    
C45   H47   S    
C1    N1    A    
C43   H13   S    
C66   C77   S    
C58   F8    S    
C69   C70   A    
C67   H23   S    
C55   H50   S    
C10   C11   A    
C79   C80   A    
C20   C21   A    
C78   N11   A    
C49   C50   A    
C9    C78   A    
C14   C15   A    
C18   H3    S    
C21   C22   A    
C35   C46   S    
C76   C85   A    
C20   C31   S    
C83   H43   S    
C26   H5    S    
C64   H44   S    
