data_mof_unit_pretest_61.cif
_audit_creation_date              2012-12-10T16:59:17-0500
_audit_creation_method            fapswitch 2.2
_symmetry_space_group_name_H-M    P1
_symmetry_Int_Tables_number       1
_space_group_crystal_system       triclinic
_cell_length_a                    7.767929
_cell_length_b                    8.604281
_cell_length_c                    27.595873
_cell_angle_alpha                 91.539848
_cell_angle_beta                  86.305761
_cell_angle_gamma                 94.057771
_cell_volume                      1835.52973805

loop_
_atom_site_label
_atom_site_type_symbol
_atom_type_description
_atom_site_fract_x
_atom_site_fract_y
_atom_site_fract_z
_atom_type_partial_charge
C1    C     C_R   0.546007 0.794790 0.498709 0.965172
C2    C     C_R   0.453981 0.205203 0.501214 0.966409
C3    C     C_R   0.563985 0.508717 0.899012 -0.052617
C4    C     C_R   0.494738 0.558880 0.102470 -0.077197
C5    C     C_R   0.664994 0.621823 0.871997 -0.007386
C6    C     C_R   0.358266 0.472928 0.127809 0.001081
C7    C     C_R   0.779158 0.725937 0.895666 -0.151057
C8    C     C_R   0.228358 0.394896 0.101948 -0.144890
C9    C     C_R   0.474749 0.386169 0.874649 -0.063173
C10   C     C_R   0.619796 0.645839 0.128193 -0.061065
C11   C     C_R   0.513728 0.505995 0.646718 -0.056581
C12   C     C_R   0.490821 0.510659 0.353958 -0.054276
C13   C     C_R   0.633699 0.655270 0.025794 -0.001648
C14   C     C_R   0.435080 0.413170 0.976465 -0.028804
C15   C     C_R   0.397939 0.447333 0.026246 0.057447
C16   C     C_R   0.654416 0.637406 0.974335 0.065407
C17   C     C_R   0.509579 0.553725 0.051231 0.044401
C18   C     C_R   0.551578 0.519325 0.950165 0.039384
C19   C     C_R   0.723751 0.773417 0.053820 0.086184
C20   C     C_R   0.365146 0.276048 0.951759 0.095682
C21   C     C_R   0.739222 0.748107 0.103240 -0.162613
C22   C     C_R   0.378641 0.270401 0.900951 -0.170072
C23   C     C_R   0.503408 0.501313 0.593979 0.879765
C24   C     C_R   0.497098 0.500652 0.406223 0.868409
C25   C     C_R   0.782103 0.725240 0.945948 -0.246454
C26   C     C_R   0.246473 0.386345 0.051616 -0.243033
C27   C     C_2   0.569939 0.958457 0.497911 -0.377304
C28   C     C_2   0.430026 0.041519 0.501882 -0.379918
C29   C     C_R   0.650686 0.625014 0.821730 0.478748
C30   C     C_R   0.354502 0.469784 0.178414 0.481592
C31   C     C_R   0.486992 0.380629 0.823960 0.511602
C32   C     C_R   0.613803 0.636582 0.178773 0.518136
C33   C     C_R   0.373065 0.506278 0.728074 0.142581
C34   C     C_R   0.378516 0.629871 0.284880 0.150414
C35   C     C_R   0.363224 0.504151 0.677582 -0.244520
C36   C     C_R   0.381477 0.613230 0.335007 -0.244711
C37   C     C_R   0.675848 0.513885 0.666438 -0.228442
C38   C     C_R   0.596318 0.421773 0.322938 -0.226070
C39   C     C_R   0.687528 0.517553 0.716263 -0.131896
C40   C     C_R   0.590481 0.433615 0.273039 -0.152404
C41   C     C_R   0.538420 0.511705 0.747514 0.294878
C42   C     C_R   0.482506 0.536845 0.253911 0.293559
H1    H     H_    0.794352 0.517695 0.643419 0.162386
H2    H     H_    0.681315 0.342249 0.337314 0.160852
H3    H     H_    0.013140 0.382772 0.463353 0.193266
H4    H     H_    0.986850 0.617176 0.536664 0.189500
H5    H     H_    0.813537 0.524793 0.730784 0.160123
H6    H     H_    0.670941 0.363477 0.249005 0.156051
H7    H     H_    0.870052 0.804744 0.875361 0.183387
H8    H     H_    0.114525 0.338005 0.120358 0.186777
H9    H     H_    0.302299 0.683925 0.359310 0.156563
H10   H     H_    0.237535 0.499945 0.662480 0.159799
H11   H     H_    0.827400 0.824427 0.123343 0.183736
H12   H     H_    0.313596 0.174880 0.881597 0.184166
N1    N     N_R   0.557408 0.506883 0.798815 -0.355405
N2    N     N_R   0.483300 0.548337 0.202526 -0.354891
N3    N     N_2   0.950320 0.457960 0.486880 -0.175226
N4    N     N_2   0.049680 0.542040 0.513120 -0.177785
O1    O     O_R   0.389250 0.738570 0.503220 -0.612946
O2    O     O_R   0.610750 0.261430 0.496780 -0.612355
O3    O     O_R   0.678390 0.711630 0.494810 -0.628312
O4    O     O_R   0.321610 0.288370 0.505190 -0.628552
O5    O     O_R   0.355440 0.513440 0.575450 -0.621264
O6    O     O_R   0.644560 0.486560 0.424550 -0.613521
O7    O     O_R   0.644590 0.486500 0.567040 -0.629069
O8    O     O_R   0.355410 0.513500 0.432960 -0.627198
O9    O     O_2   0.728318 0.744833 0.796162 -0.565498
O10   O     O_2   0.224601 0.388334 0.203396 -0.583781
O11   O     O_2   0.735793 0.715896 0.204149 -0.578241
O12   O     O_2   0.428596 0.251005 0.799947 -0.571878
Zn1   Zn    Zn3+2 0.306940 0.517990 0.505620 0.944044
Zn2   Zn    Zn3+2 0.693060 0.482010 0.494380 0.947347
C43   C     C_3   0.269749 0.750999 0.265763 -0.388031
C44   C     C_3   0.354658 0.915275 0.273892 -0.414673
C45   C     C_3   0.249038 0.039207 0.253966 -0.758413
H13   H     H_    0.240869 0.022470 0.214098 0.267004
H14   H     H_    0.116525 0.033393 0.271838 0.264030
H15   H     H_    0.312600 0.156343 0.261335 0.272799
H16   H     H_    0.366850 0.939040 0.313367 0.225135
H17   H     H_    0.486394 0.923930 0.255412 0.255733
H18   H     H_    0.251598 0.732181 0.226439 0.220215
H19   H     H_    0.138788 0.740894 0.284699 0.219365
C46   C     C_3   0.205817 0.503687 0.759587 -0.413434
C47   C     C_3   0.099583 0.346632 0.754051 -0.309115
C48   C     C_3   0.978293 0.312180 0.798792 -0.809953
H20   H     H_    0.054249 0.292874 0.830586 0.263679
H21   H     H_    0.896662 0.410843 0.807351 0.248981
H22   H     H_    0.893268 0.205662 0.791957 0.271305
H23   H     H_    0.023176 0.348222 0.721452 0.194576
H24   H     H_    0.184878 0.248909 0.748052 0.278144
H25   H     H_    0.230528 0.528993 0.798228 0.211097
H26   H     H_    0.128269 0.599238 0.748689 0.195044
C49   C     C_3   0.769657 0.938739 0.036750 -0.461085
C50   C     C_3   0.684157 0.060476 0.070422 -0.337090
C51   C     C_3   0.730886 0.224071 0.052401 -0.875877
H27   H     H_    0.872575 0.247458 0.049907 0.250879
H28   H     H_    0.680568 0.238364 0.016198 0.271481
H29   H     H_    0.675744 0.308452 0.078894 0.263304
H30   H     H_    0.541283 0.037649 0.072125 0.228269
H31   H     H_    0.727899 0.056350 0.107836 0.227940
H32   H     H_    0.912136 0.962581 0.035311 0.197560
H33   H     H_    0.721485 0.956423 0.000586 0.221225
C52   C     C_3   0.287313 0.130389 0.977838 -0.459325
C53   C     C_3   0.342967 0.975503 0.954764 -0.341733
C54   C     C_3   0.284898 0.839736 0.987788 -0.866107
H34   H     H_    0.357393 0.847600 0.021198 0.266082
H35   H     H_    0.145203 0.840049 0.998373 0.248412
H36   H     H_    0.307090 0.728309 0.968212 0.261746
H37   H     H_    0.282392 0.952140 0.919720 0.222943
H38   H     H_    0.485775 0.980136 0.948023 0.239560
H39   H     H_    0.328608 0.131881 0.015552 0.231601
H40   H     H_    0.143983 0.128902 0.978419 0.194504
H41   H     H_    0.885007 0.795294 0.961775 0.149473
H42   H     H_    0.141685 0.331354 0.032512 0.144610
H43   H     H_    0.701863 0.010095 0.494106 0.180643
H44   H     H_    0.298100 0.989878 0.505671 0.180695

loop_
_geom_bond_atom_site_label_1
_geom_bond_atom_site_label_2
_ccdc_geom_bond_type
C38   C40   A    
C49   C50   S    
C8    C26   A    
C43   C44   S    
C14   C18   A    
C51   H27   S    
C34   C42   A    
C51   H29   S    
C39   C41   A    
C20   C52   S    
C48   H20   S    
C46   H26   S    
C54   H35   S    
H3    N3    S    
C19   C21   A    
C1    O1    A    
C53   H37   S    
C2    O2    A    
N4    Zn1   S    
O2    Zn2   S    
C3    C18   A    
C52   H39   S    
C11   C37   A    
C40   H6    S    
C41   N1    S    
C28   H44   S    
C42   N2    S    
C29   O9    S    
C31   O12   S    
C46   C47   S    
C12   C36   A    
C19   C49   S    
C24   O8    A    
C23   O5    A    
C24   O6    A    
C44   H17   S    
H4    N4    S    
C47   H24   S    
C43   H18   S    
C53   C54   S    
C5    C29   A    
C48   H21   S    
C10   C21   A    
C54   H36   S    
C44   C45   S    
C13   C19   A    
C14   C20   A    
C47   C48   S    
C7    H7    S    
C22   H12   S    
C49   H32   S    
C5    C7    A    
C15   C26   A    
C6    C8    A    
C29   N1    A    
C30   N2    A    
C52   H40   S    
C37   H1    S    
C45   H13   S    
C26   H42   S    
C38   H2    S    
C3    C9    A    
C25   H41   S    
C45   H14   S    
O8    Zn1   S    
C50   H31   S    
C33   C46   S    
C36   H9    S    
C4    C17   A    
O3    Zn2   S    
C4    C6    A    
C6    C30   A    
C20   C22   A    
C44   H16   S    
C47   H23   S    
C4    C10   A    
C8    H8    S    
C43   H19   S    
C35   H10   S    
C53   H38   S    
C39   H5    S    
C48   H22   S    
C16   C25   A    
C15   C17   A    
O5    Zn1   S    
C40   C42   A    
C3    C5    A    
C1    O3    A    
C49   H33   S    
C51   H28   S    
C32   O11   S    
O7    Zn2   S    
C46   H25   S    
C54   H34   S    
C12   C24   S    
C7    C25   A    
C13   C17   A    
C33   C41   A    
C23   O7    A    
C11   C35   A    
C37   C39   A    
C21   H11   S    
N3    N4    D    
C50   H30   S    
C11   C23   S    
C33   C35   A    
O4    Zn1   S    
C34   C36   A    
O6    Zn2   S    
N3    Zn2   S    
C12   C38   A    
C50   C51   S    
C9    C22   A    
C45   H15   S    
C9    C31   A    
C34   C43   S    
C10   C32   A    
C16   C18   A    
C13   C16   A    
C52   C53   S    
C1    C27   S    
C14   C15   A    
C2    C28   S    
C31   N1    A    
C32   N2    A    
C30   O10   S    
C2    O4    A    
O1    Zn1   S    
C27   C28   D    
C27   H43   S    
