data_mof_unit_pretest_1503.cif
_audit_creation_date              2012-12-10T17:43:42-0500
_audit_creation_method            fapswitch 2.2
_symmetry_space_group_name_H-M    P1
_symmetry_Int_Tables_number       1
_space_group_crystal_system       triclinic
_cell_length_a                    44.154976
_cell_length_b                    30.386755
_cell_length_c                    30.356816
_cell_angle_alpha                 89.999842
_cell_angle_beta                  133.382548
_cell_angle_gamma                 90.000141
_cell_volume                      29602.3034332

loop_
_atom_site_label
_atom_site_type_symbol
_atom_type_description
_atom_site_fract_x
_atom_site_fract_y
_atom_site_fract_z
_atom_type_partial_charge
C1    C     C_R   0.501126 0.999913 0.586279 0.778455
C2    C     C_R   0.498874 0.999913 0.413720 0.778456
C3    C     C_R   0.001112 0.499916 0.586268 0.779024
C4    C     C_R   0.998888 0.499916 0.413732 0.778813
C5    C     C_3   0.225441 0.979304 0.184816 -0.416158
C6    C     C_3   0.774559 0.979302 0.815183 -0.416157
C7    C     C_3   0.725428 0.477649 0.185702 -0.416732
C8    C     C_3   0.274578 0.476534 0.813630 -0.416682
C9    C     C_3   0.273106 0.986856 0.228272 -0.169990
C10   C     C_3   0.726894 0.986855 0.771727 -0.169988
C11   C     C_3   0.773093 0.485008 0.228836 -0.169917
C12   C     C_3   0.226912 0.483757 0.770712 -0.169969
C13   C     C_1   0.162080 0.000998 0.162743 -0.098918
C14   C     C_1   0.837920 0.000998 0.837256 -0.098917
C15   C     C_1   0.662080 0.501073 0.162707 -0.098614
C16   C     C_1   0.337920 0.501106 0.837306 -0.098821
C17   C     C_1   0.337892 0.000536 0.338218 -0.020067
C18   C     C_1   0.662108 0.000536 0.661782 -0.020066
C19   C     C_1   0.837892 0.500556 0.338169 -0.020016
C20   C     C_1   0.162108 0.500567 0.661845 -0.019984
C21   C     C_1   0.375449 0.000144 0.375524 -0.114002
C22   C     C_1   0.624551 0.000144 0.624475 -0.114001
C23   C     C_1   0.875449 0.500148 0.375497 -0.114056
C24   C     C_1   0.124551 0.500150 0.624510 -0.114041
C25   C     C_R   0.484018 0.034439 0.686555 -0.134073
C26   C     C_R   0.515982 0.034439 0.313445 -0.134073
C27   C     C_R   0.984174 0.534771 0.686642 -0.133284
C28   C     C_R   0.015846 0.534758 0.313378 -0.133286
C29   C     C_R   0.483770 0.033819 0.640608 -0.168414
C30   C     C_R   0.516230 0.033820 0.359392 -0.168418
C31   C     C_R   0.983936 0.534056 0.640709 -0.168492
C32   C     C_R   0.016084 0.534044 0.359311 -0.168521
C33   C     C_R   0.503072 0.999556 0.636803 -0.105673
C34   C     C_R   0.496928 0.999557 0.363196 -0.105675
C35   C     C_R   0.003003 0.499592 0.636741 -0.105964
C36   C     C_R   0.996997 0.499594 0.363259 -0.106105
C37   C     C_R   0.523993 0.965772 0.681229 -0.059559
C38   C     C_R   0.476006 0.965773 0.318770 -0.059560
C39   C     C_R   0.023654 0.465676 0.680976 -0.059649
C40   C     C_R   0.976324 0.465691 0.319005 -0.059772
C41   C     C_R   0.523576 0.965791 0.727558 -0.024239
C42   C     C_R   0.476423 0.965792 0.272442 -0.024240
C43   C     C_R   0.023197 0.465786 0.727263 -0.022364
C44   C     C_R   0.976780 0.465800 0.272717 -0.022430
C45   C     C_R   0.420108 0.000012 0.420072 0.817105
C46   C     C_R   0.579892 0.000012 0.579928 0.817106
C47   C     C_R   0.920108 0.500012 0.420067 0.817350
C48   C     C_R   0.079892 0.500012 0.579933 0.817456
C49   C     C_R   0.503205 0.000631 0.729445 0.002759
C50   C     C_R   0.496795 0.000632 0.270555 0.002754
C51   C     C_R   0.003100 0.500855 0.729336 0.002476
C52   C     C_R   0.996898 0.500854 0.270663 0.002390
C53   C     C_R   0.476814 0.972061 0.774468 -0.144965
C54   C     C_R   0.523186 0.972061 0.225532 -0.144966
C55   C     C_R   0.976084 0.472931 0.773691 -0.144583
C56   C     C_R   0.023906 0.472922 0.226300 -0.144572
C57   C     C_R   0.476132 0.972740 0.819604 -0.154540
C58   C     C_R   0.523868 0.972740 0.180396 -0.154548
C59   C     C_R   0.975434 0.473589 0.818853 -0.159200
C60   C     C_R   0.024557 0.473580 0.181140 -0.159195
C61   C     C_R   0.500103 0.003503 0.866854 -0.101340
C62   C     C_R   0.499897 0.003503 0.133146 -0.101332
C63   C     C_R   0.000065 0.503742 0.866799 -0.109753
C64   C     C_R   0.999934 0.503740 0.133201 -0.109743
C65   C     C_R   0.524041 0.035195 0.867656 -0.023958
C66   C     C_R   0.475959 0.035196 0.132344 -0.023940
C67   C     C_R   0.024573 0.534963 0.868178 -0.023260
C68   C     C_R   0.975433 0.534966 0.131829 -0.023236
C69   C     C_R   0.524335 0.034063 0.821714 -0.119964
C70   C     C_R   0.475666 0.034063 0.178286 -0.119965
C71   C     C_R   0.024832 0.533856 0.822198 -0.120992
C72   C     C_R   0.975174 0.533859 0.177808 -0.121037
C73   C     C_R   0.501245 0.002383 0.775804 0.013532
C74   C     C_R   0.498755 0.002383 0.224196 0.013538
C75   C     C_R   0.001123 0.502701 0.775661 0.013493
C76   C     C_R   0.998875 0.502698 0.224338 0.013522
C77   C     C_R   0.000000 0.914938 0.000000 0.802159
C78   C     C_R   0.500000 0.414938 0.000000 0.801824
C79   C     C_R   0.079896 0.000034 0.079902 0.809899
C80   C     C_R   0.920104 0.000034 0.920098 0.809898
C81   C     C_R   0.579896 0.500056 0.079902 0.809638
C82   C     C_R   0.420104 0.500056 0.920098 0.809585
C83   C     C_R   1.000000 0.084972 1.000000 0.726880
C84   C     C_R   0.500000 0.585008 1.000000 0.725380
C85   C     C_3   0.274491 0.969227 0.313243 -0.103366
C86   C     C_3   0.725509 0.969229 0.686756 -0.103358
C87   C     C_3   0.774490 0.470904 0.314485 -0.103515
C88   C     C_3   0.225509 0.472070 0.684686 -0.103384
C89   C     C_R   0.500000 0.085260 0.000000 0.762695
C90   C     C_R   0.000000 0.585260 0.000000 0.762970
C91   C     C_R   0.500023 0.001297 0.914957 0.765346
C92   C     C_R   0.499977 0.001297 0.085042 0.765344
C93   C     C_R   0.000018 0.501404 0.914948 0.763693
C94   C     C_R   0.999982 0.501402 0.085052 0.763686
C95   C     C_R   0.500000 0.914877 0.000000 0.796583
C96   C     C_R   0.000000 0.414795 1.000000 0.795660
C97   C     C_R   0.999302 0.797289 0.958743 -0.014601
C98   C     C_R   0.000698 0.797289 0.041258 -0.014611
C99   C     C_R   0.499313 0.297288 0.958753 -0.014770
C100  C     C_R   0.500691 0.297288 0.041251 -0.014792
C101  C     C_R   0.999374 0.843298 0.959562 -0.257226
C102  C     C_R   0.000626 0.843298 0.040439 -0.257221
C103  C     C_R   0.499385 0.343298 0.959573 -0.257788
C104  C     C_R   0.500618 0.343297 0.040431 -0.257576
C105  C     C_R   0.000000 0.866476 0.000000 -0.023062
C106  C     C_R   0.500001 0.366476 0.000001 -0.023132
C107  C     C_R   1.000000 0.773915 0.000000 0.020760
C108  C     C_R   0.500002 0.273914 0.000002 0.020748
C109  C     C_R   0.537772 0.202753 0.036024 -0.055520
C110  C     C_R   0.462230 0.202754 0.963979 -0.055669
C111  C     C_R   0.037772 0.702754 0.036036 -0.055531
C112  C     C_R   0.962228 0.702754 0.963965 -0.055539
C113  C     C_R   0.537799 0.156918 0.036041 -0.153668
C114  C     C_R   0.462202 0.156919 0.963960 -0.153667
C115  C     C_R   0.037799 0.656919 0.036054 -0.153736
C116  C     C_R   0.962201 0.656919 0.963947 -0.153741
C117  C     C_R   0.500000 0.133611 0.000000 -0.047475
C118  C     C_R   0.000000 0.633612 0.000000 -0.047510
C119  C     C_3   0.274695 0.049096 0.285155 -0.208637
C120  C     C_3   0.725305 0.049097 0.714846 -0.208643
C121  C     C_3   0.774709 0.549515 0.283077 -0.208601
C122  C     C_3   0.225286 0.549742 0.718331 -0.208538
C123  C     C_R   0.500001 0.225674 0.000002 0.203582
C124  C     C_R   0.000000 0.725675 0.000000 0.203429
C125  C     C_R   0.037716 0.202181 0.036383 -0.118000
C126  C     C_R   0.962284 0.202181 0.963616 -0.117995
C127  C     C_R   0.537386 0.702351 0.032002 -0.118148
C128  C     C_R   0.462618 0.702352 0.968012 -0.118071
C129  C     C_R   0.038285 0.156103 0.036958 -0.011006
C130  C     C_R   0.961715 0.156104 0.963041 -0.011007
C131  C     C_R   0.537952 0.656248 0.032499 -0.011093
C132  C     C_R   0.462050 0.656249 0.967511 -0.010669
C133  C     C_R   1.000000 0.133010 1.000000 -0.168896
C134  C     C_R   0.500000 0.633115 0.000001 -0.169707
C135  C     C_R   1.000000 0.225267 1.000000 0.013234
C136  C     C_R   0.500002 0.725478 0.000007 0.013021
C137  C     C_R   0.476961 0.797218 0.008602 -0.174565
C138  C     C_R   0.523043 0.797217 0.991408 -0.174559
C139  C     C_R   0.972598 0.296888 0.945212 -0.175906
C140  C     C_R   0.027402 0.296888 0.054788 -0.175907
C141  C     C_R   0.476779 0.843160 0.008642 -0.038432
C142  C     C_R   0.523223 0.843159 0.991364 -0.038444
C143  C     C_R   0.972364 0.342806 0.944740 -0.033547
C144  C     C_R   0.027636 0.342806 0.055259 -0.033544
C145  C     C_R   0.500000 0.866536 0.000001 -0.120193
C146  C     C_R   1.000000 0.366317 1.000000 -0.124332
C147  C     C_R   0.500002 0.774017 0.000006 0.080491
C148  C     C_R   1.000000 0.273740 1.000000 0.081378
C149  C     C_3   0.225330 0.050883 0.229767 -0.098218
C150  C     C_3   0.774670 0.050883 0.770235 -0.098224
C151  C     C_3   0.725343 0.551059 0.227623 -0.097208
C152  C     C_3   0.274653 0.551116 0.773822 -0.097596
C153  C     C_1   0.124539 0.000452 0.124637 -0.143788
C154  C     C_1   0.875461 0.000452 0.875363 -0.143788
C155  C     C_1   0.624539 0.500499 0.124628 -0.143951
C156  C     C_1   0.375461 0.500512 0.875374 -0.143943
C157  C     C_3   0.291539 0.001017 0.292554 0.084299
C158  C     C_3   0.708461 0.001017 0.707446 0.084298
C159  C     C_3   0.791539 0.501077 0.292490 0.084233
C160  C     C_3   0.208461 0.501111 0.707533 0.084245
C161  C     C_3   0.225441 0.975768 0.268248 -0.192144
C162  C     C_3   0.774558 0.975769 0.731751 -0.192138
C163  C     C_3   0.725444 0.477623 0.269225 -0.192297
C164  C     C_3   0.274555 0.478899 0.730134 -0.192426
C165  C     C_3   0.208312 0.001847 0.210222 0.056554
C166  C     C_3   0.791687 0.001848 0.789778 0.056553
C167  C     C_3   0.708313 0.501965 0.210138 0.056878
C168  C     C_3   0.291687 0.502031 0.789902 0.056867
Cu1   Cu    Cu3+1 0.500000 0.955930 0.500000 1.027493
Cu2   Cu    Cu3+1 0.000000 0.455930 0.500000 1.028170
Cu3   Cu    Cu3+1 0.500000 0.044060 0.500000 1.016327
Cu4   Cu    Cu3+1 0.000000 0.544060 0.500000 1.015225
Cu5   Cu    Cu3+1 0.000000 0.000140 0.044060 0.999670
Cu6   Cu    Cu3+1 0.000000 0.000140 0.955940 0.999656
Cu7   Cu    Cu3+1 0.500000 0.500140 0.044060 1.000081
Cu8   Cu    Cu3+1 0.500000 0.500140 0.955940 1.000163
Cu9   Cu    Cu3+1 0.458680 0.999980 0.958690 1.001322
Cu10  Cu    Cu3+1 0.541320 0.999980 0.041310 1.001326
Cu11  Cu    Cu3+1 0.958680 0.499980 0.958690 1.004516
Cu12  Cu    Cu3+1 0.041320 0.499980 0.041310 1.004542
H1    H     H_    0.219058 0.997266 0.290870 0.177320
H2    H     H_    0.780942 0.997268 0.709129 0.177318
H3    H     H_    0.719072 0.500324 0.290929 0.177603
H4    H     H_    0.280921 0.502395 0.709087 0.177485
H5    H     H_    0.209719 0.992560 0.139237 0.185170
H6    H     H_    0.790281 0.992557 0.860763 0.185173
H7    H     H_    0.709702 0.489640 0.139591 0.185138
H8    H     H_    0.290305 0.487652 0.860073 0.185140
H9    H     H_    0.468525 0.061133 0.688174 0.157496
H10   H     H_    0.531476 0.061133 0.311826 0.157503
H11   H     H_    0.968880 0.561628 0.688402 0.157979
H12   H     H_    0.031157 0.561604 0.311632 0.158039
H13   H     H_    0.467896 0.060037 0.607329 0.164694
H14   H     H_    0.532104 0.060037 0.392671 0.164697
H15   H     H_    0.968264 0.560375 0.607580 0.165005
H16   H     H_    0.031773 0.560352 0.392456 0.165083
H17   H     H_    0.458695 0.947611 0.738825 0.156868
H18   H     H_    0.541304 0.947611 0.261175 0.156858
H19   H     H_    0.957477 0.448904 0.737546 0.159690
H20   H     H_    0.042508 0.448889 0.262439 0.159642
H21   H     H_    0.457586 0.948531 0.818475 0.152845
H22   H     H_    0.542414 0.948531 0.181525 0.152830
H23   H     H_    0.956392 0.449807 0.817181 0.171126
H24   H     H_    0.043594 0.449793 0.182805 0.171109
H25   H     H_    0.542602 0.057712 0.821477 0.184534
H26   H     H_    0.457398 0.057712 0.178523 0.184530
H27   H     H_    0.043544 0.557118 0.822411 0.184708
H28   H     H_    0.956467 0.557126 0.177600 0.184663
H29   H     H_    0.998850 0.861210 0.928161 0.156404
H30   H     H_    0.001150 0.861209 0.071839 0.156407
H31   H     H_    0.498868 0.361209 0.928179 0.156416
H32   H     H_    0.501135 0.361209 0.071824 0.156433
H33   H     H_    0.567069 0.220412 0.063949 0.132751
H34   H     H_    0.432933 0.220413 0.936054 0.132630
H35   H     H_    0.067069 0.720413 0.063970 0.132989
H36   H     H_    0.932931 0.720413 0.936031 0.132981
H37   H     H_    0.567360 0.139791 0.064167 0.161556
H38   H     H_    0.432641 0.139792 0.935834 0.161526
H39   H     H_    0.067360 0.639792 0.064190 0.161701
H40   H     H_    0.932640 0.639792 0.935811 0.161693
H41   H     H_    0.066746 0.220332 0.063852 0.182453
H42   H     H_    0.933254 0.220332 0.936147 0.182455
H43   H     H_    0.566270 0.720486 0.057356 0.181978
H44   H     H_    0.433735 0.720488 0.942660 0.182048
H45   H     H_    0.459647 0.779456 0.016308 0.149356
H46   H     H_    0.540357 0.779454 0.983704 0.149363
H47   H     H_    0.951810 0.279073 0.902634 0.148593
H48   H     H_    0.048190 0.279072 0.097366 0.148590
H49   H     H_    0.282586 0.055681 0.327980 0.174336
H50   H     H_    0.717414 0.055683 0.672021 0.174338
H51   H     H_    0.782606 0.557557 0.325600 0.174547
H52   H     H_    0.217386 0.558772 0.676051 0.174523
H53   H     H_    0.277875 0.014065 0.209140 0.193847
H54   H     H_    0.722125 0.014063 0.790860 0.193849
H55   H     H_    0.777864 0.511189 0.208581 0.193768
H56   H     H_    0.222141 0.509210 0.791708 0.193807
H57   H     H_    0.217935 0.943578 0.178066 0.206389
H58   H     H_    0.782065 0.943577 0.821932 0.206387
H59   H     H_    0.717913 0.441989 0.180451 0.206325
H60   H     H_    0.282095 0.440953 0.817862 0.206224
O1    O     O_R   0.500000 0.962790 0.564270 -0.578689
O2    O     O_R   0.500000 0.962790 0.435730 -0.578690
O3    O     O_R   0.000000 0.462790 0.564270 -0.578731
O4    O     O_R   0.000000 0.462790 0.435730 -0.578763
O5    O     O_R   0.465110 0.999980 0.900850 -0.572959
O6    O     O_R   0.534890 0.999980 0.099150 -0.572959
O7    O     O_R   0.965110 0.499980 0.900850 -0.564380
O8    O     O_R   0.034890 0.499980 0.099150 -0.564370
O9    O     O_R   0.534890 0.999980 0.970630 -0.580280
O10   O     O_R   0.465110 0.999980 0.029370 -0.580284
O11   O     O_R   0.034890 0.499980 0.970630 -0.588393
O12   O     O_R   0.965110 0.499980 0.029370 -0.588396
O13   O     O_R   0.465110 0.935690 0.965100 -0.569921
O14   O     O_R   0.534890 0.935690 0.034900 -0.569938
O15   O     O_R   0.965110 0.435690 0.965100 -0.568286
O16   O     O_R   0.034890 0.435690 0.034900 -0.568283
O17   O     O_R   0.499990 0.037210 0.564290 -0.578685
O18   O     O_R   0.500010 0.037210 0.435710 -0.578685
O19   O     O_R   0.999990 0.537210 0.564290 -0.578799
O20   O     O_R   0.000010 0.537210 0.435710 -0.578794
O21   O     O_R   0.439720 0.962790 0.439720 -0.575111
O22   O     O_R   0.560280 0.962790 0.560280 -0.575114
O23   O     O_R   0.939720 0.462790 0.439720 -0.574825
O24   O     O_R   0.060280 0.462790 0.560280 -0.574628
O25   O     O_R   0.439710 0.037210 0.439740 -0.565256
O26   O     O_R   0.560290 0.037210 0.560260 -0.565256
O27   O     O_R   0.939710 0.537210 0.439740 -0.565793
O28   O     O_R   0.060290 0.537210 0.560260 -0.566133
O29   O     O_R   0.000000 0.935850 0.037210 -0.585922
O30   O     O_R   0.000000 0.935850 0.962790 -0.585925
O31   O     O_R   0.500000 0.435850 0.037210 -0.585878
O32   O     O_R   0.500000 0.435850 0.962790 -0.585935
O33   O     O_R   0.060280 0.000140 0.097490 -0.571555
O34   O     O_R   0.939720 0.000140 0.902510 -0.571557
O35   O     O_R   0.560280 0.500140 0.097490 -0.570496
O36   O     O_R   0.439720 0.500140 0.902510 -0.570342
O37   O     O_R   0.060280 0.000120 0.023100 -0.574531
O38   O     O_R   0.939720 0.000120 0.976900 -0.574527
O39   O     O_R   0.560280 0.500120 0.023100 -0.575189
O40   O     O_R   0.439720 0.500120 0.976900 -0.575143
O41   O     O_R   0.999990 0.064430 0.037200 -0.574130
O42   O     O_R   0.000010 0.064430 0.962800 -0.574134
O43   O     O_R   0.499990 0.564430 0.037200 -0.574179
O44   O     O_R   0.500010 0.564430 0.962800 -0.574125
O45   O     O_R   0.465110 0.064280 0.965140 -0.591375
O46   O     O_R   0.534890 0.064280 0.034860 -0.591363
O47   O     O_R   0.965110 0.564280 0.965140 -0.591309
O48   O     O_R   0.034890 0.564280 0.034860 -0.591304
C169  C     C_2   0.288939 0.921994 0.319136 0.400836
H61   H     H_    0.320453 0.912460 0.359640 0.089028
O49   O     O_2   0.267157 0.894789 0.278799 -0.545762
C170  C     C_2   0.711061 0.921995 0.680861 0.400823
H62   H     H_    0.679547 0.912461 0.640357 0.089024
O50   O     O_2   0.732843 0.894789 0.721198 -0.545770
C171  C     C_2   0.788921 0.423348 0.322352 0.400866
H63   H     H_    0.820435 0.414189 0.363240 0.088737
O51   O     O_2   0.767126 0.395395 0.283168 -0.545956
C172  C     C_2   0.211083 0.424345 0.675459 0.400647
H64   H     H_    0.179569 0.415456 0.634316 0.088495
O52   O     O_2   0.232882 0.395907 0.713836 -0.546090
C173  C     C_2   0.201280 0.933999 0.254122 0.469363
H65   H     H_    0.190842 0.912649 0.217264 0.111246
O53   O     O_2   0.193114 0.924057 0.283966 -0.515664
C174  C     C_2   0.798720 0.934001 0.745876 0.469355
H66   H     H_    0.809158 0.912650 0.782733 0.111246
O54   O     O_2   0.806886 0.924060 0.716032 -0.515681
C175  C     C_2   0.701274 0.436320 0.256848 0.469915
H67   H     H_    0.690810 0.413889 0.220888 0.111047
O55   O     O_2   0.693136 0.427974 0.287109 -0.515023
C176  C     C_2   0.298728 0.437953 0.741331 0.470241
H68   H     H_    0.309190 0.414799 0.776634 0.111009
O56   O     O_2   0.306872 0.430717 0.710853 -0.514900
C177  C     C_1   0.548440 0.933384 0.681910 0.363956
N1    N     N_1   0.568016 0.907625 0.682465 -0.209484
C178  C     C_1   0.451559 0.933385 0.318089 0.363953
N2    N     N_1   0.431983 0.907626 0.317534 -0.209479
C179  C     C_1   0.047874 0.433033 0.681522 0.364579
N3    N     N_1   0.067270 0.407067 0.681972 -0.210047
C180  C     C_1   0.952084 0.433066 0.318441 0.364505
N4    N     N_1   0.932672 0.407116 0.317977 -0.209900
C181  C     C_2   0.545078 0.930893 0.775248 0.362592
H69   H     H_    0.554564 0.937358 0.818410 0.100723
O57   O     O_2   0.551553 0.894281 0.766652 -0.505057
C182  C     C_2   0.454921 0.930894 0.224751 0.362585
H70   H     H_    0.445435 0.937359 0.181590 0.100722
O58   O     O_2   0.448446 0.894282 0.233347 -0.505058
C183  C     C_2   0.044347 0.430718 0.774694 0.360520
H71   H     H_    0.053793 0.437124 0.817839 0.095539
O59   O     O_2   0.050566 0.394035 0.765894 -0.506564
C184  C     C_2   0.955609 0.430744 0.225266 0.360594
H72   H     H_    0.946173 0.437153 0.182128 0.095517
O60   O     O_2   0.949362 0.394068 0.234041 -0.506480
C185  C     C_2   0.547395 0.070456 0.914317 0.397943
H73   H     H_    0.543559 0.075484 0.945597 0.077871
O61   O     O_2   0.571040 0.094863 0.918017 -0.515937
C186  C     C_2   0.452606 0.070457 0.085683 0.397926
H74   H     H_    0.456441 0.075485 0.054402 0.077872
O62   O     O_2   0.428960 0.094863 0.081982 -0.515976
C187  C     C_2   0.048537 0.569765 0.915443 0.396477
H75   H     H_    0.044618 0.575036 0.946594 0.079486
O63   O     O_2   0.072782 0.593539 0.919779 -0.516633
C188  C     C_2   0.951477 0.569774 0.084570 0.396452
H76   H     H_    0.955394 0.575042 0.053418 0.079487
O64   O     O_2   0.927239 0.593556 0.080241 -0.516687
C189  C     C_1   0.293197 0.980957 0.375130 0.187180
N5    N     N_1   0.307774 0.990116 0.423343 -0.227692
C190  C     C_1   0.706802 0.980960 0.624869 0.187175
N6    N     N_1   0.692226 0.990120 0.576657 -0.227698
C191  C     C_1   0.793209 0.484428 0.375849 0.187352
N7    N     N_1   0.807796 0.494984 0.423655 -0.226997
C192  C     C_1   0.206784 0.486808 0.623724 0.187211
N8    N     N_1   0.192193 0.498310 0.576232 -0.227162
C193  C     C_2   0.998427 0.775845 0.913691 0.370659
H77   H     H_    0.998513 0.796147 0.884342 0.085546
O65   O     O_2   0.997493 0.735963 0.908179 -0.526853
C194  C     C_2   0.001573 0.775845 0.086310 0.370673
H78   H     H_    0.001487 0.796147 0.115659 0.085556
O66   O     O_2   0.002508 0.735963 0.091822 -0.526838
C195  C     C_2   0.498445 0.275844 0.913709 0.370285
H79   H     H_    0.498549 0.296146 0.884377 0.085579
O67   O     O_2   0.497495 0.235963 0.908181 -0.526584
C196  C     C_2   0.501560 0.275844 0.086296 0.370412
H80   H     H_    0.501455 0.296146 0.115626 0.085593
O68   O     O_2   0.502512 0.235963 0.091826 -0.526574
C197  C     C_2   0.078972 0.132575 0.076260 0.393011
H81   H     H_    0.080207 0.096939 0.077461 0.048784
O69   O     O_2   0.111851 0.152797 0.108046 -0.530903
C198  C     C_2   0.921028 0.132575 0.923739 0.393019
H82   H     H_    0.919793 0.096939 0.922538 0.048781
O70   O     O_2   0.888149 0.152796 0.891953 -0.530898
C199  C     C_2   0.578363 0.632736 0.067612 0.391543
H83   H     H_    0.579681 0.597104 0.069355 0.051652
O71   O     O_2   0.610929 0.652968 0.095290 -0.529292
C200  C     C_2   0.421639 0.632739 0.932404 0.391261
H84   H     H_    0.420318 0.597107 0.930640 0.051442
O72   O     O_2   0.389078 0.652972 0.904757 -0.529775
C201  C     C_1   0.453757 0.865577 0.019870 0.259360
N9    N     N_1   0.435380 0.883559 0.028935 -0.248339
C202  C     C_1   0.546244 0.865575 0.980133 0.259354
N10   N     N_1   0.564620 0.883556 0.971067 -0.248338
C203  C     C_1   0.944412 0.364866 0.886714 0.266912
N11   N     N_1   0.922001 0.382476 0.840214 -0.268518
C204  C     C_1   0.055588 0.364865 0.113286 0.266901
N12   N     N_1   0.077999 0.382475 0.159786 -0.268526
C205  C     C_2   0.296968 0.086333 0.283312 0.389630
H85   H     H_    0.292123 0.119896 0.289570 0.115901
O73   O     O_2   0.319603 0.079755 0.274275 -0.529728
C206  C     C_2   0.703032 0.086333 0.716691 0.389639
H86   H     H_    0.707877 0.119896 0.710434 0.115904
O74   O     O_2   0.680397 0.079754 0.725728 -0.529721
C207  C     C_2   0.796989 0.585702 0.279695 0.389508
H87   H     H_    0.792156 0.619702 0.284547 0.115765
O75   O     O_2   0.819616 0.577796 0.270949 -0.530054
C208  C     C_2   0.203006 0.585178 0.722743 0.389800
H88   H     H_    0.207834 0.619441 0.718866 0.115878
O76   O     O_2   0.180382 0.576374 0.731254 -0.530317
C209  C     C_2   0.204264 0.076478 0.245874 0.348688
H89   H     H_    0.170494 0.078372 0.213329 0.115443
O77   O     O_2   0.224114 0.095986 0.293944 -0.527309
C210  C     C_2   0.795736 0.076480 0.754129 0.348693
H90   H     H_    0.829506 0.078373 0.786673 0.115443
O78   O     O_2   0.775886 0.095989 0.706059 -0.527302
C211  C     C_2   0.704284 0.578203 0.242623 0.346604
H91   H     H_    0.670516 0.580211 0.209953 0.112837
O79   O     O_2   0.724137 0.598812 0.289897 -0.527934
C212  C     C_2   0.295705 0.579281 0.759605 0.347591
H92   H     H_    0.329474 0.581294 0.792303 0.113625
O80   O     O_2   0.275845 0.600697 0.712954 -0.527487
C213  C     C_1   0.213456 0.074582 0.176922 0.256399
N13   N     N_1   0.204159 0.093016 0.135745 -0.222792
C214  C     C_1   0.786544 0.074581 0.823080 0.256402
N14   N     N_1   0.795841 0.093014 0.864258 -0.222772
C215  C     C_1   0.713474 0.573015 0.173819 0.255736
N15   N     N_1   0.704180 0.590094 0.131896 -0.220434
C216  C     C_1   0.286524 0.571863 0.828239 0.255785
N16   N     N_1   0.295818 0.588001 0.870638 -0.221975
C217  C     C_1   0.293805 0.948424 0.228716 0.307974
N17   N     N_1   0.310082 0.918409 0.229014 -0.209573
C218  C     C_1   0.706194 0.948422 0.771283 0.307979
N18   N     N_1   0.689917 0.918406 0.770983 -0.209581
C219  C     C_1   0.793779 0.445755 0.230895 0.308228
N19   N     N_1   0.810044 0.415091 0.232455 -0.209990
C220  C     C_1   0.206232 0.443985 0.767528 0.308532
N20   N     N_1   0.189972 0.412912 0.765090 -0.209815

loop_
_geom_bond_atom_site_label_1
_geom_bond_atom_site_label_2
_ccdc_geom_bond_type
C119  C149  S    
C99   C103  A    
C4    C36   S    
C89   O45   A    
C55   C59   A    
Cu1   O2    S    
C32   H16   S    
C15   C167  S    
C128  H44   S    
C11   C159  S    
C185  H73   S    
C6    H58   S    
C87   C171  S    
C27   H11   S    
C211  O79   D    
C111  H35   S    
C112  C124  A    
C150  C214  S    
C209  O77   D    
Cu12  O11   S    
C29   C33   A    
C100  C104  A    
C31   H15   S    
C138  H46   S    
C8    C168  S    
Cu10  O6    S    
C55   H19   S    
C182  H70   S    
C70   C74   A    
C161  C173  S    
C95   O13   A    
C141  C145  A    
C125  C135  A    
C71   H27   S    
C4    O20   A    
C120  C158  S    
C107  C124  S    
C87   C191  S    
C41   C49   A    
C198  H82   S    
C193  O65   D    
C25   C29   A    
C176  O56   D    
C100  C108  A    
C184  H72   S    
C9    H53   S    
C164  C168  S    
Cu7   O40   S    
Cu8   O39   S    
C120  H50   S    
C62   C66   A    
C188  H76   S    
C173  H65   S    
C17   C21   T    
C19   C23   T    
C110  C123  A    
C68   C188  S    
Cu7   Cu8   S    
C68   C72   A    
C115  C118  A    
C12   C220  S    
Cu1   O21   S    
C78   O31   A    
C40   C180  S    
C5    H57   S    
C129  C133  A    
C151  C215  S    
C90   O48   A    
C203  N11   T    
C49   C73   S    
C172  H64   S    
C204  N12   T    
C85   C169  S    
Cu5   O38   S    
C47   O27   A    
C111  C124  A    
C81   O39   A    
Cu3   O18   S    
C82   O40   A    
C186  H74   S    
C94   O12   A    
C57   C61   A    
C92   O10   A    
C141  C201  S    
C6    H6    S    
C59   C63   A    
C78   C106  S    
C60   C64   A    
C53   H17   S    
C26   C50   A    
C64   C94   S    
Cu4   O28   S    
C197  H81   S    
C42   C182  S    
Cu11  O12   S    
Cu9   O45   S    
Cu6   O34   S    
C29   H13   S    
Cu9   O10   S    
Cu11  O47   S    
C116  C118  A    
Cu3   O25   S    
C88   C160  S    
Cu7   O35   S    
C162  C174  S    
C208  H88   S    
C119  H49   S    
C97   C107  A    
C61   C65   A    
C122  C208  S    
C132  C134  A    
C181  H69   S    
C20   C160  S    
C195  H79   S    
C175  O55   D    
C213  N13   T    
C161  C165  S    
C56   H20   S    
Cu5   O29   S    
C219  N19   T    
C82   O36   A    
C218  N18   T    
C171  O51   D    
C66   C70   A    
C99   C108  A    
Cu2   Cu4   S    
C164  H4    S    
C64   C68   A    
C7    H7    S    
C110  H34   S    
C98   C194  S    
C50   C74   S    
C3    O19   A    
C9    C217  S    
C164  C176  S    
C196  H80   S    
C150  C166  S    
Cu2   O24   S    
C143  C203  S    
C7    C167  S    
C200  H84   S    
C137  H45   S    
C93   O7    A    
C120  C206  S    
C139  C143  A    
C60   H24   S    
C87   C159  S    
C206  H86   S    
C97   C193  S    
C116  H40   S    
C17   C157  S    
C10   C158  S    
C15   C155  T    
C151  C167  S    
C8    C12   S    
Cu11  O15   S    
C44   C52   A    
C174  O54   D    
C54   C74   A    
C14   C154  T    
Cu1   Cu3   S    
C130  C198  S    
C114  H38   S    
C27   C51   A    
C21   C45   S    
C8    H60   S    
C84   O43   A    
C139  C148  A    
C140  H48   S    
C23   C47   S    
C30   C34   A    
C151  C211  S    
C24   C48   S    
Cu2   O3    S    
C149  C165  S    
C96   O16   A    
C103  H31   S    
C183  O59   D    
C109  C123  A    
C101  H29   S    
C88   C164  S    
C121  C151  S    
C122  C152  S    
C5    C9    S    
C125  C129  A    
C79   C153  S    
C45   O21   A    
C3    C35   S    
C119  C157  S    
C194  O66   D    
C169  H61   S    
Cu8   O36   S    
Cu4   O19   S    
C2    O2    A    
C58   H22   S    
C42   C50   A    
C113  C117  A    
C89   C117  S    
C26   C30   A    
C77   O29   A    
C180  N4    T    
C88   C172  S    
C104  H32   S    
C112  C116  A    
C66   C186  S    
C207  O75   D    
C149  C213  S    
C2    O18   A    
C18   C22   T    
Cu1   O1    S    
C210  H90   S    
C52   C76   S    
C104  C106  A    
Cu10  O14   S    
C125  H41   S    
C96   C146  S    
C69   H25   S    
C81   C155  S    
Cu8   O44   S    
C83   O42   A    
C25   H9    S    
C209  H89   S    
C2    C34   S    
C45   O25   A    
C112  H36   S    
C163  H3    S    
C37   C41   A    
C114  C117  A    
C89   O46   A    
Cu6   O37   S    
C182  O58   D    
C57   H21   S    
C41   C181  S    
C205  O73   D    
C94   O8    A    
C4    O4    A    
C58   C62   A    
C143  C146  A    
C80   O38   A    
C6    C166  S    
C215  N15   T    
C121  H51   S    
Cu7   O31   S    
C85   C161  S    
C95   C145  S    
C5    H5    S    
C131  C134  A    
C198  O70   D    
C193  H77   S    
C202  N10   T    
Cu6   O30   S    
C59   H23   S    
C131  C199  S    
Cu10  O46   S    
C44   C184  S    
C84   C134  S    
C191  N7    T    
C184  O60   D    
C90   C118  S    
C128  C136  A    
C144  C204  S    
C188  O64   D    
C126  C130  A    
C199  H83   S    
C102  C105  A    
C139  H47   S    
C43   C183  S    
C162  C166  S    
Cu9   O5    S    
C192  N8    T    
C16   C156  T    
C69   C73   A    
C78   O32   A    
C100  C196  S    
C185  O61   D    
C178  N2    T    
C79   O33   A    
C11   H55   S    
C142  C145  A    
C172  O52   D    
C152  C168  S    
C1    O17   A    
C173  O53   D    
C26   H10   S    
Cu6   O42   S    
C10   H54   S    
C38   C178  S    
Cu3   O17   S    
C72   H28   S    
C138  C142  A    
C171  H63   S    
C11   C219  S    
C53   C57   A    
C129  C197  S    
C27   C31   A    
C33   C37   A    
C98   C107  A    
C175  H67   S    
C99   C195  S    
C67   C187  S    
C18   C158  S    
C13   C165  S    
C187  H75   S    
C199  O71   D    
C28   C32   A    
C46   O26   A    
C12   C160  S    
C95   O14   A    
C132  C200  S    
C208  O76   D    
C144  C146  A    
C22   C46   S    
C126  C135  A    
C31   C35   A    
C130  C133  A    
C70   H26   S    
C108  C123  S    
C32   C36   A    
C190  N6    T    
C205  H85   S    
C91   O9    A    
C137  C141  A    
C176  H68   S    
C92   O6    A    
C137  C147  A    
C140  C144  A    
C54   H18   S    
C6    C10   S    
C80   C154  S    
C186  O62   D    
C122  H52   S    
C63   C93   S    
C120  C150  S    
C19   C159  S    
C127  C131  A    
C77   C105  S    
C88   C192  S    
C183  H71   S    
C98   C102  A    
C43   C51   A    
C177  N1    T    
C30   H14   S    
Cu10  O9    S    
C196  O68   D    
C65   C69   A    
Cu1   O22   S    
C67   C71   A    
C39   C179  S    
C25   C49   A    
C65   C185  S    
Cu11  Cu12  S    
C56   C60   A    
Cu5   O41   S    
C206  O74   D    
Cu9   Cu10  S    
C90   O47   A    
C212  H92   S    
C87   C163  S    
C91   O5    A    
C56   C76   A    
C35   C39   A    
C211  H91   S    
C72   C76   A    
C140  C148  A    
C217  N17   T    
Cu12  O16   S    
C1    C33   S    
C207  H87   S    
Cu5   Cu6   S    
C121  C207  S    
C7    C11   S    
C84   O44   A    
Cu2   O4    S    
C170  H62   S    
C51   C75   S    
C162  H2    S    
Cu4   O27   S    
C109  H33   S    
C197  O69   D    
C48   O28   A    
C127  C136  A    
Cu3   O26   S    
C214  N14   T    
C20   C24   T    
C181  O57   D    
C62   C92   S    
C86   C162  S    
C9    C157  S    
Cu4   O20   S    
C127  H43   S    
C82   C156  S    
C161  H1    S    
C115  H39   S    
Cu7   O43   S    
C28   H12   S    
C113  H37   S    
C119  C205  S    
C101  C105  A    
C63   C67   A    
C86   C170  S    
C36   C40   A    
C210  O78   D    
C220  N20   T    
C102  H30   S    
C39   C43   A    
C47   O23   A    
C170  O50   D    
C48   O24   A    
C37   C177  S    
Cu2   O23   S    
C81   O35   A    
Cu12  O48   S    
C163  C167  S    
C10   C218  S    
C83   O41   A    
C216  N16   T    
C40   C44   A    
C138  C147  A    
C79   O37   A    
C13   C153  T    
C80   O34   A    
C149  C209  S    
C195  O67   D    
C3    O3    A    
C86   C158  S    
C201  N9    T    
C1    O1    A    
Cu5   O33   S    
C174  H66   S    
C187  O63   D    
C7    H59   S    
C5    C165  S    
C86   C190  S    
C14   C166  S    
Cu12  O8    S    
Cu8   O32   S    
C54   C58   A    
C150  C210  S    
C12   H56   S    
C110  C114  A    
C128  C132  A    
C85   C189  S    
C34   C38   A    
C53   C73   A    
C96   O15   A    
Cu11  O7    S    
C126  H42   S    
C109  C113  A    
C46   O22   A    
Cu9   O13   S    
C152  C212  S    
C152  C216  S    
C55   C75   A    
C71   C75   A    
C28   C52   A    
C16   C168  S    
C194  H78   S    
C169  O49   D    
C200  O72   D    
C103  C106  A    
C212  O80   D    
C163  C175  S    
C179  N3    T    
C83   C133  S    
C136  C147  S    
C38   C42   A    
C93   O11   A    
C135  C148  S    
C121  C159  S    
C85   C157  S    
C122  C160  S    
C77   O30   A    
C111  C115  A    
C142  C202  S    
C189  N5    T    
C8    H8    S    
C97   C101  A    
C61   C91   S    
