data_mof_unit_pretest_430.cif
_audit_creation_date              2012-12-10T17:57:48-0500
_audit_creation_method            fapswitch 2.2
_symmetry_space_group_name_H-M    P1
_symmetry_Int_Tables_number       1
_space_group_crystal_system       triclinic
_cell_length_a                    10.778716
_cell_length_b                    9.633024
_cell_length_c                    15.045679
_cell_angle_alpha                 89.765527
_cell_angle_beta                  91.458311
_cell_angle_gamma                 89.777167
_cell_volume                      1561.68584525

loop_
_atom_site_label
_atom_site_type_symbol
_atom_type_description
_atom_site_fract_x
_atom_site_fract_y
_atom_site_fract_z
_atom_type_partial_charge
C1    C     C_R   0.263002 0.499852 0.500448 0.742576
C2    C     C_R   0.736998 0.500148 0.499554 0.742578
C3    C     C_R   0.313420 0.638805 0.047263 -0.261526
C4    C     C_R   0.686541 0.361144 0.952737 -0.261510
C5    C     C_R   0.067824 0.468411 0.579845 -0.036594
C6    C     C_R   0.932175 0.531584 0.420157 -0.036588
C7    C     C_R   0.937242 0.469885 0.579577 -0.022678
C8    C     C_R   0.062758 0.530114 0.420425 -0.022697
C9    C     C_R   0.871306 0.501898 0.499942 -0.216274
C10   C     C_R   0.128694 0.498102 0.500060 -0.216277
C11   C     C_R   0.425589 0.075307 0.441328 0.031872
C12   C     C_R   0.574420 0.924693 0.558666 0.031924
C13   C     C_R   0.573426 0.073091 0.559257 0.027566
C14   C     C_R   0.426569 0.926909 0.440746 0.027604
C15   C     C_R   0.502854 0.499698 0.329189 0.836256
C16   C     C_R   0.497141 0.500302 0.670811 0.836251
C17   C     C_R   0.585474 0.427291 0.814546 -0.230052
C18   C     C_R   0.414508 0.572695 0.185453 -0.230067
C19   C     C_R   0.494797 0.502162 0.767375 -0.158907
C20   C     C_R   0.505193 0.497836 0.232625 -0.158899
C21   C     C_R   0.406310 0.582180 0.812027 0.460426
C22   C     C_R   0.593673 0.417811 0.187973 0.460450
C23   C     C_R   0.402454 0.574988 0.906072 -0.072889
C24   C     C_R   0.597518 0.424980 0.093929 -0.072918
C25   C     C_R   0.498234 0.501487 0.953210 -0.041640
C26   C     C_R   0.501739 0.498482 0.046789 -0.041654
C27   C     C_R   0.590128 0.429565 0.906783 0.069029
C28   C     C_R   0.409845 0.570405 0.093217 0.069037
C29   C     C_R   0.305513 0.636943 0.954282 0.474094
C30   C     C_R   0.694444 0.362997 0.045718 0.474165
Cu1   Cu    Cu3+1 0.500000 0.640660 0.500000 0.953347
Cu2   Cu    Cu3+1 0.500000 0.359340 0.500000 0.953309
H1    H     H_    0.655433 0.370767 0.779033 0.207649
H2    H     H_    0.344548 0.629217 0.220966 0.207672
H3    H     H_    0.242949 0.693337 0.083774 0.189471
H4    H     H_    0.757006 0.306602 0.916226 0.189474
N1    N     N_R   0.500000 0.852070 0.500000 -0.241687
N2    N     N_R   0.500000 0.147930 0.500000 -0.241706
O1    O     O_R   0.319640 0.618740 0.499990 -0.594421
O2    O     O_R   0.680360 0.381260 0.500010 -0.594443
O3    O     O_R   0.680360 0.618740 0.500010 -0.614890
O4    O     O_R   0.319640 0.381260 0.499990 -0.614896
O5    O     O_R   0.499970 0.618800 0.370260 -0.580829
O6    O     O_R   0.500030 0.381200 0.629740 -0.580861
O7    O     O_R   0.500030 0.618800 0.629740 -0.554522
O8    O     O_R   0.499970 0.381200 0.370260 -0.554528
O9    O     O_3   0.318395 0.657022 0.762802 -0.553474
C31   C     C_3   0.349588 0.799571 0.762751 -0.088611
H5    H     H_    0.262465 0.861145 0.758158 0.183616
H6    H     H_    0.403195 0.825079 0.703142 0.190258
H7    H     H_    0.401687 0.834436 0.823605 0.152894
O10   O     O_3   0.681577 0.342951 0.237198 -0.553503
C32   C     C_3   0.650345 0.200410 0.237278 -0.088415
H8    H     H_    0.597858 0.165607 0.176574 0.152853
H9    H     H_    0.597105 0.174865 0.297056 0.190143
H10   H     H_    0.737465 0.138799 0.241576 0.183698
O11   O     O_3   0.205980 0.701160 0.910698 -0.547789
C33   C     C_3   0.095789 0.628401 0.928439 -0.171801
H11   H     H_    0.106764 0.514305 0.919232 0.170516
H12   H     H_    0.022073 0.664300 0.880844 0.213968
H13   H     H_    0.063580 0.651016 0.996441 0.129233
O12   O     O_3   0.793961 0.298750 0.089301 -0.547833
C34   C     C_3   0.904164 0.371496 0.071575 -0.171887
H14   H     H_    0.977872 0.335568 0.119167 0.213959
H15   H     H_    0.893205 0.485591 0.080797 0.170553
H16   H     H_    0.936374 0.348899 0.003570 0.129245
C35   C     C_2   0.142662 0.442575 0.663112 0.494282
H17   H     H_    0.231453 0.389678 0.660737 0.057734
O13   O     O_2   0.108405 0.484931 0.734786 -0.502015
C36   C     C_2   0.857337 0.557408 0.336888 0.494259
H18   H     H_    0.768547 0.610307 0.339259 0.057731
O14   O     O_2   0.891594 0.515038 0.265217 -0.502058
C37   C     C_2   0.867122 0.437671 0.661137 0.408523
H19   H     H_    0.783640 0.495881 0.675296 0.037394
O15   O     O_2   0.898488 0.342355 0.710636 -0.531583
C38   C     C_2   0.132876 0.562332 0.338866 0.408556
H20   H     H_    0.216362 0.504128 0.324708 0.037351
O16   O     O_2   0.101504 0.657644 0.289365 -0.531577
C39   C     C_2   0.336694 0.150305 0.382002 0.451917
H21   H     H_    0.250996 0.190461 0.407996 0.059370
O17   O     O_2   0.355394 0.161024 0.302617 -0.537604
C40   C     C_2   0.663364 0.849698 0.617958 0.451904
H22   H     H_    0.749062 0.809595 0.591932 0.059362
O18   O     O_2   0.644709 0.838932 0.697346 -0.537589
C41   C     C_2   0.653817 0.145419 0.624452 0.449190
H23   H     H_    0.733350 0.203008 0.602992 0.088952
O19   O     O_2   0.634585 0.134766 0.703754 -0.520323
C42   C     C_2   0.346158 0.854578 0.375567 0.449216
H24   H     H_    0.266600 0.797042 0.397040 0.088910
O20   O     O_2   0.365398 0.865177 0.296263 -0.520323

loop_
_geom_bond_atom_site_label_1
_geom_bond_atom_site_label_2
_ccdc_geom_bond_type
C4    H4    S    
C37   H19   S    
C42   O20   D    
C5    C35   S    
C6    C9    A    
C34   H15   S    
C7    C37   S    
C32   H8    S    
Cu1   O5    S    
C23   C29   A    
C3    C28   A    
C19   C21   A    
C24   C26   A    
C11   C14   A    
C2    O3    A    
C33   H12   S    
C8    C38   S    
C7    C9    A    
C12   N1    A    
C3    C29   A    
C31   H7    S    
O9    C31   S    
C36   H18   S    
Cu2   N2    S    
C16   O6    A    
C33   H13   S    
C31   H6    S    
C34   H16   S    
C37   O15   D    
C17   H1    S    
C5    C7    A    
C32   H9    S    
C15   C20   S    
C29   O11   S    
C41   O19   D    
C35   H17   S    
C17   C27   A    
C18   C28   A    
C38   H20   S    
C39   O17   D    
C6    C8    A    
C25   C26   A    
C41   H23   S    
Cu1   N1    S    
C35   O13   D    
C11   N2    A    
O12   C34   S    
Cu1   Cu2   S    
C3    H3    S    
Cu2   O6    S    
C12   C40   S    
C42   H24   S    
C18   H2    S    
C13   N2    A    
C11   C39   S    
C31   H5    S    
C20   C22   A    
C40   O18   D    
C30   O12   S    
C22   C24   A    
C39   H21   S    
C4    C27   A    
O10   C32   S    
C22   O10   S    
C32   H10   S    
C6    C36   S    
Cu1   O3    S    
Cu2   O8    S    
C1    C10   S    
C38   O16   D    
C16   O7    A    
C25   C27   A    
C26   C28   A    
C21   C23   A    
C33   H11   S    
C15   O5    A    
C5    C10   A    
C14   N1    A    
O11   C33   S    
C16   C19   S    
C17   C19   A    
Cu1   O1    S    
C18   C20   A    
Cu2   O2    S    
C24   C30   A    
C1    O1    A    
C14   C42   S    
C34   H14   S    
C2    O2    A    
C1    O4    A    
C23   C25   A    
C12   C13   A    
C8    C10   A    
C40   H22   S    
Cu1   O7    S    
C13   C41   S    
Cu2   O4    S    
C36   O14   D    
C15   O8    A    
C2    C9    S    
C4    C30   A    
C21   O9    S    
