data_mof_unit_pretest_1776.cif
_audit_creation_date              2012-12-10T20:22:26-0500
_audit_creation_method            fapswitch 2.2
_symmetry_space_group_name_H-M    P1
_symmetry_Int_Tables_number       1
_space_group_crystal_system       triclinic
_cell_length_a                    25.681214
_cell_length_b                    36.282042
_cell_length_c                    22.22648
_cell_angle_alpha                 90.005892
_cell_angle_beta                  125.306111
_cell_angle_gamma                 89.999665
_cell_volume                      16900.8496448

loop_
_atom_site_label
_atom_site_type_symbol
_atom_type_description
_atom_site_fract_x
_atom_site_fract_y
_atom_site_fract_z
_atom_type_partial_charge
C1    C     C_R   0.858040 0.749990 0.999748 0.792645
C2    C     C_R   0.141790 0.249998 0.999913 0.792435
C3    C     C_R   0.141991 0.750018 0.000323 0.792268
C4    C     C_R   0.858212 0.250000 0.000089 0.792497
C5    C     C_R   0.358223 0.249991 0.000115 0.792580
C6    C     C_R   0.642013 0.749962 0.000367 0.792501
C7    C     C_R   0.641774 0.249989 0.999881 0.792866
C8    C     C_R   0.358016 0.749989 0.999692 0.792191
C9    C     C_3   0.733592 0.241282 0.932009 -0.218883
C10   C     C_3   0.238088 0.784570 0.011502 -0.218034
C11   C     C_3   0.266438 0.241396 0.068042 -0.218784
C12   C     C_3   0.762245 0.784540 0.989185 -0.217701
C13   C     C_3   0.261936 0.715448 0.988549 -0.218086
C14   C     C_3   0.766362 0.258699 0.067889 -0.219641
C15   C     C_3   0.737923 0.715345 0.011199 -0.218519
C16   C     C_3   0.233604 0.258581 0.932049 -0.219709
C17   C     C_3   0.801169 0.249962 0.000233 -0.036914
C18   C     C_3   0.199436 0.749775 0.001025 -0.031908
C19   C     C_3   0.198831 0.249958 0.999767 -0.037067
C20   C     C_3   0.800662 0.749711 0.999186 -0.032046
C21   C     C_3   0.300587 0.750242 0.999020 -0.031969
C22   C     C_3   0.698786 0.250017 0.999675 -0.037745
C23   C     C_3   0.699498 0.750174 0.001160 -0.032035
C24   C     C_3   0.301210 0.250018 0.000317 -0.037466
C25   C     C_3   0.791841 0.224963 0.049354 -0.182110
C26   C     C_3   0.199492 0.737294 0.934927 -0.224684
C27   C     C_3   0.208238 0.224876 0.950802 -0.182072
C28   C     C_3   0.800516 0.737013 0.065114 -0.224675
C29   C     C_3   0.300533 0.762725 0.065120 -0.224660
C30   C     C_3   0.708108 0.275016 0.950545 -0.181154
C31   C     C_3   0.699663 0.762868 0.935252 -0.224527
C32   C     C_3   0.291809 0.275100 0.049289 -0.181107
C33   C     C_R   0.686255 0.762215 0.461142 -0.348194
C34   C     C_R   0.313430 0.236567 0.539446 -0.382010
C35   C     C_R   0.314924 0.759223 0.538643 -0.356841
C36   C     C_R   0.683483 0.242869 0.460658 -0.367804
C37   C     C_R   0.188300 0.263184 0.460752 -0.360989
C38   C     C_R   0.813085 0.738388 0.538621 -0.352391
C39   C     C_R   0.815008 0.254706 0.539223 -0.357003
C40   C     C_R   0.185611 0.740623 0.461390 -0.357046
C41   C     C_R   0.711155 0.750368 0.422614 -0.027806
C42   C     C_R   0.288678 0.249746 0.577322 -0.019072
C43   C     C_R   0.288921 0.749934 0.577312 -0.021488
C44   C     C_R   0.711220 0.248652 0.422660 -0.026455
C45   C     C_R   0.212879 0.249891 0.422771 -0.009632
C46   C     C_R   0.788087 0.750037 0.577207 -0.032070
C47   C     C_R   0.787287 0.249060 0.577262 -0.018005
C48   C     C_R   0.211591 0.749945 0.422707 -0.021561
C49   C     C_R   0.775112 0.738877 0.461366 0.494950
C50   C     C_R   0.225417 0.262637 0.537870 0.520937
C51   C     C_R   0.223828 0.740961 0.538665 0.495041
C52   C     C_R   0.777664 0.253687 0.462089 0.521381
C53   C     C_R   0.276184 0.237201 0.461780 0.504118
C54   C     C_R   0.724044 0.761576 0.538345 0.516741
C55   C     C_R   0.721118 0.243492 0.538120 0.497372
C56   C     C_R   0.276733 0.758840 0.461361 0.494920
C57   C     C_1   0.671087 0.750312 0.343281 0.015026
C58   C     C_1   0.328499 0.249878 0.656686 0.004251
C59   C     C_1   0.328968 0.750018 0.656666 0.015475
C60   C     C_1   0.671248 0.249298 0.343307 0.001413
C61   C     C_1   0.172770 0.249845 0.343394 0.036711
C62   C     C_1   0.828290 0.750025 0.656592 0.007134
C63   C     C_1   0.827217 0.249354 0.656621 0.028209
C64   C     C_1   0.171417 0.749964 0.343350 0.014923
C65   C     C_1   0.861574 0.749987 0.723007 -0.150621
C66   C     C_1   0.139034 0.249852 0.276984 -0.143959
C67   C     C_1   0.138263 0.749946 0.276952 -0.147552
C68   C     C_1   0.860883 0.249643 0.723025 -0.144662
C69   C     C_1   0.361640 0.249935 0.723075 -0.150234
C70   C     C_1   0.638065 0.750215 0.276902 -0.147631
C71   C     C_1   0.638139 0.249695 0.276922 -0.149979
C72   C     C_1   0.361926 0.750086 0.723060 -0.147546
C73   C     C_R   0.956128 0.019277 0.006269 -0.179387
C74   C     C_R   0.043876 0.980727 0.993734 -0.179804
C75   C     C_R   0.043877 0.019273 0.993732 -0.179473
C76   C     C_R   0.956129 0.980731 0.006274 -0.179647
C77   C     C_R   0.457590 0.519273 0.008790 -0.179516
C78   C     C_R   0.542413 0.480723 0.991214 -0.179091
C79   C     C_R   0.542412 0.519269 0.991209 -0.179649
C80   C     C_R   0.457589 0.480727 0.008792 -0.179182
C81   C     C_R   0.000002 0.038620 0.999998 0.164684
C82   C     C_R   0.000002 0.961383 0.000006 0.164995
C83   C     C_R   0.500001 0.538617 0.999998 0.164803
C84   C     C_R   0.500001 0.461380 0.000005 0.164492
C85   C     C_R   0.098935 0.749974 0.197977 0.817948
C86   C     C_R   0.900924 0.249958 0.802014 0.817159
C87   C     C_R   0.901039 0.749977 0.802009 0.818954
C88   C     C_R   0.099071 0.249981 0.197988 0.816808
C89   C     C_R   0.598946 0.249967 0.197967 0.819655
C90   C     C_R   0.401097 0.750035 0.802027 0.817955
C91   C     C_R   0.401030 0.249988 0.802033 0.818893
C92   C     C_R   0.598904 0.750049 0.197960 0.817481
C93   C     C_1   0.000003 0.078269 0.999996 -0.076232
C94   C     C_1   0.000001 0.921733 0.000008 -0.076946
C95   C     C_1   0.500002 0.578267 0.999995 -0.076850
C96   C     C_1   0.499999 0.421731 0.000006 -0.075853
C97   C     C_1   0.000000 0.888517 0.000007 -0.140240
C98   C     C_1   0.000002 0.111485 0.999995 -0.139547
C99   C     C_1   0.499999 0.388515 0.000006 -0.139185
C100  C     C_1   0.500002 0.611483 0.999995 -0.140235
C101  C     C_R   0.000000 0.849000 0.000003 0.822405
C102  C     C_R   0.000001 0.151001 0.999998 0.824859
C103  C     C_R   0.499999 0.349000 0.000002 0.825054
C104  C     C_R   0.500001 0.651000 0.999998 0.822235
C105  C     C_R   0.999998 0.651006 0.999999 0.824729
C106  C     C_R   0.000002 0.348993 0.000001 0.819782
C107  C     C_R   0.499998 0.151007 0.999999 0.820168
C108  C     C_R   0.500002 0.848994 0.000002 0.824581
C109  C     C_R   0.945384 0.480721 0.981526 -0.180753
C110  C     C_R   0.054617 0.519273 0.018475 -0.180998
C111  C     C_R   0.054620 0.480726 0.018476 -0.180481
C112  C     C_R   0.945380 0.519268 0.981521 -0.181001
C113  C     C_R   0.445817 0.980727 0.982949 -0.181337
C114  C     C_R   0.554188 0.019279 0.017067 -0.181203
C115  C     C_R   0.554192 0.980732 0.017071 -0.181192
C116  C     C_R   0.445814 0.019274 0.982949 -0.181044
C117  C     C_R   0.000003 0.461377 0.000003 0.164521
C118  C     C_R   0.999997 0.538618 0.999997 0.164830
C119  C     C_R   0.500006 0.961382 0.000011 0.165025
C120  C     C_R   0.499999 0.038623 0.000006 0.164780
C121  C     C_1   0.000006 0.421726 0.000004 -0.078253
C122  C     C_1   0.999994 0.578269 0.999995 -0.078909
C123  C     C_1   0.500007 0.921731 0.000010 -0.079190
C124  C     C_1   0.499995 0.078274 0.000001 -0.078970
C125  C     C_1   0.999994 0.611487 0.999995 -0.144364
C126  C     C_1   0.000006 0.388510 0.000004 -0.141766
C127  C     C_1   0.499994 0.111491 0.999998 -0.142944
C128  C     C_1   0.500007 0.888513 0.000007 -0.144522
C129  C     C_3   0.261069 0.728129 0.054192 0.239456
C130  C     C_3   0.776203 0.283297 0.018592 0.213649
C131  C     C_3   0.738895 0.728233 0.945744 0.239510
C132  C     C_3   0.223685 0.283262 0.981191 0.213715
C133  C     C_3   0.723745 0.216683 0.981303 0.213673
C134  C     C_3   0.238957 0.771891 0.945859 0.239405
C135  C     C_3   0.276362 0.216715 0.018903 0.213677
C136  C     C_3   0.761274 0.771643 0.054641 0.239719
H1    H     H_    0.902891 0.533960 0.967145 0.139914
H2    H     H_    0.097108 0.466033 0.032849 0.140427
H3    H     H_    0.097104 0.533968 0.032850 0.139952
H4    H     H_    0.902898 0.466025 0.967155 0.140291
H5    H     H_    0.403663 0.033966 0.969678 0.140068
H6    H     H_    0.596344 0.966040 0.030345 0.139781
H7    H     H_    0.596337 0.033975 0.030335 0.140020
H8    H     H_    0.403666 0.966032 0.969677 0.139720
H9    H     H_    0.721156 0.233977 0.876637 0.144319
H10   H     H_    0.227396 0.812836 0.020611 0.143062
H11   H     H_    0.278903 0.234182 0.123462 0.144351
H12   H     H_    0.773142 0.812839 0.980492 0.143618
H13   H     H_    0.272630 0.687181 0.979446 0.143240
H14   H     H_    0.778793 0.266013 0.123252 0.145084
H15   H     H_    0.727022 0.687050 0.019902 0.143304
H16   H     H_    0.221145 0.265800 0.876637 0.143552
H17   H     H_    0.826612 0.204326 0.089447 0.156706
H18   H     H_    0.157319 0.727020 0.881616 0.139976
H19   H     H_    0.173534 0.204169 0.910844 0.156668
H20   H     H_    0.842614 0.726559 0.118283 0.139575
H21   H     H_    0.342708 0.773002 0.118427 0.139720
H22   H     H_    0.673333 0.295648 0.910443 0.157220
H23   H     H_    0.657562 0.773326 0.882094 0.140223
H24   H     H_    0.326517 0.295803 0.089253 0.157159
H25   H     H_    0.637368 0.771792 0.431317 0.174072
H26   H     H_    0.361456 0.225592 0.570457 0.165037
H27   H     H_    0.364852 0.766676 0.568311 0.177619
H28   H     H_    0.632667 0.237765 0.430185 0.172438
H29   H     H_    0.139994 0.273781 0.430471 0.175619
H30   H     H_    0.862106 0.729052 0.568346 0.178145
H31   H     H_    0.865902 0.259500 0.569441 0.177422
H32   H     H_    0.135685 0.733167 0.431736 0.177232
H33   H     H_    0.922002 0.966039 0.011152 0.139663
H34   H     H_    0.078005 0.033966 0.988855 0.140075
H35   H     H_    0.078002 0.966032 0.988857 0.139560
H36   H     H_    0.922000 0.033972 0.011142 0.140143
H37   H     H_    0.424597 0.466035 0.015629 0.140350
H38   H     H_    0.575402 0.533960 0.984369 0.139780
H39   H     H_    0.575404 0.466028 0.984379 0.140372
H40   H     H_    0.424601 0.533968 0.015627 0.139844
O1    O     O_3   0.000000 0.750010 0.000000 -0.474700
O2    O     O_3   0.000000 0.249990 0.000000 -0.477169
O3    O     O_3   0.500000 0.250010 0.000000 -0.476400
O4    O     O_3   0.500000 0.749990 0.000000 -0.474762
O5    O     O_R   0.861350 0.728650 0.957310 -0.660921
O6    O     O_R   0.138650 0.271350 0.042690 -0.647370
O7    O     O_R   0.138650 0.728650 0.042690 -0.660723
O8    O     O_R   0.861350 0.271350 0.957310 -0.647426
O9    O     O_R   0.361350 0.228650 0.957310 -0.648109
O10   O     O_R   0.638650 0.771350 0.042690 -0.660682
O11   O     O_R   0.638650 0.228650 0.042690 -0.648069
O12   O     O_R   0.361350 0.771350 0.957310 -0.660764
O13   O     O_R   0.050700 0.771350 0.162940 -0.634163
O14   O     O_R   0.949300 0.228650 0.837060 -0.636442
O15   O     O_R   0.949300 0.771350 0.837060 -0.632864
O16   O     O_R   0.050700 0.228650 0.162940 -0.635865
O17   O     O_R   0.550700 0.271350 0.162940 -0.634720
O18   O     O_R   0.449300 0.728650 0.837060 -0.633947
O19   O     O_R   0.449300 0.271350 0.837060 -0.633836
O20   O     O_R   0.550700 0.728650 0.162940 -0.633700
O21   O     O_R   0.990570 0.831470 0.042720 -0.636429
O22   O     O_R   0.009430 0.168530 0.957280 -0.635891
O23   O     O_R   0.009430 0.831470 0.957280 -0.636270
O24   O     O_R   0.990570 0.168530 0.042720 -0.635562
O25   O     O_R   0.490570 0.331470 0.042720 -0.635930
O26   O     O_R   0.509430 0.668530 0.957280 -0.636512
O27   O     O_R   0.509430 0.331470 0.957280 -0.635451
O28   O     O_R   0.490570 0.668530 0.042720 -0.636239
O29   O     O_R   0.947900 0.668550 0.957290 -0.638214
O30   O     O_R   0.052100 0.331450 0.042710 -0.638502
O31   O     O_R   0.052100 0.668550 0.042710 -0.638328
O32   O     O_R   0.947900 0.331450 0.957290 -0.638919
O33   O     O_R   0.447900 0.168550 0.957290 -0.638749
O34   O     O_R   0.552100 0.831450 0.042710 -0.638247
O35   O     O_R   0.552100 0.168550 0.042710 -0.639232
O36   O     O_R   0.447900 0.831450 0.957290 -0.638344
O37   O     O_R   0.112210 0.728640 0.162920 -0.640362
O38   O     O_R   0.887790 0.271360 0.837080 -0.635300
O39   O     O_R   0.887790 0.728640 0.837080 -0.642336
O40   O     O_R   0.112210 0.271360 0.162920 -0.635168
O41   O     O_R   0.612210 0.228640 0.162920 -0.639663
O42   O     O_R   0.387790 0.771360 0.837080 -0.640427
O43   O     O_R   0.387790 0.228640 0.837080 -0.639656
O44   O     O_R   0.612210 0.771360 0.162920 -0.640759
O45   O     O_R   0.904050 0.771360 0.042740 -0.635415
O46   O     O_R   0.095950 0.228640 0.957260 -0.643943
O47   O     O_R   0.095950 0.771360 0.957260 -0.635438
O48   O     O_R   0.904050 0.228640 0.042740 -0.643867
O49   O     O_R   0.404050 0.271360 0.042740 -0.643776
O50   O     O_R   0.595950 0.728640 0.957260 -0.635469
O51   O     O_R   0.595950 0.271360 0.957260 -0.643788
O52   O     O_R   0.404050 0.728640 0.042740 -0.635418
Zn1   Zn    Zn3+2 0.074440 0.719490 0.061020 0.958993
Zn2   Zn    Zn3+2 0.925560 0.280510 0.938980 0.966180
Zn3   Zn    Zn3+2 0.925560 0.719490 0.938980 0.958255
Zn4   Zn    Zn3+2 0.074440 0.280510 0.061020 0.966762
Zn5   Zn    Zn3+2 0.574440 0.219490 0.061020 0.963094
Zn6   Zn    Zn3+2 0.425560 0.780510 0.938980 0.958853
Zn7   Zn    Zn3+2 0.425560 0.219490 0.938980 0.963345
Zn8   Zn    Zn3+2 0.574440 0.780510 0.061020 0.958730
Zn9   Zn    Zn3+2 0.986560 0.780520 0.061040 0.973186
Zn10  Zn    Zn3+2 0.013440 0.219480 0.938960 0.971780
Zn11  Zn    Zn3+2 0.013440 0.780520 0.938960 0.973739
Zn12  Zn    Zn3+2 0.986560 0.219480 0.061040 0.972413
Zn13  Zn    Zn3+2 0.486560 0.280520 0.061040 0.972354
Zn14  Zn    Zn3+2 0.513440 0.719480 0.938960 0.973113
Zn15  Zn    Zn3+2 0.513440 0.280520 0.938960 0.973049
Zn16  Zn    Zn3+2 0.486560 0.719480 0.061040 0.973189
C137  C     C_3   0.273963 0.703119 0.116819 -0.391126
C138  C     C_3   0.340844 0.686612 0.158876 -0.864999
H41   H     H_    0.346738 0.669855 0.121366 0.266353
H42   H     H_    0.377385 0.708777 0.183890 0.261385
H43   H     H_    0.348462 0.668545 0.203630 0.252623
H44   H     H_    0.268919 0.719404 0.155517 0.216889
H45   H     H_    0.238316 0.680469 0.093520 0.219583
C139  C     C_3   0.807673 0.321265 0.039850 -0.416843
C140  C     C_3   0.771105 0.348251 0.055157 -0.860603
H46   H     H_    0.721489 0.351628 0.005352 0.260282
H47   H     H_    0.769891 0.338231 0.101547 0.256790
H48   H     H_    0.795103 0.375527 0.070268 0.251920
H49   H     H_    0.857348 0.318594 0.089890 0.196903
H50   H     H_    0.809271 0.332057 0.994177 0.220144
C141  C     C_3   0.725948 0.703362 0.882929 -0.390744
C142  C     C_3   0.658772 0.687224 0.840193 -0.863848
H51   H     H_    0.652303 0.670456 0.877228 0.266165
H52   H     H_    0.622608 0.709591 0.815268 0.261496
H53   H     H_    0.651135 0.669251 0.795306 0.249480
H54   H     H_    0.731567 0.719673 0.844720 0.211285
H55   H     H_    0.761230 0.680522 0.906120 0.219542
C143  C     C_3   0.192085 0.321191 0.959682 -0.417071
C144  C     C_3   0.228542 0.348147 0.944160 -0.860901
H56   H     H_    0.278157 0.351612 0.993922 0.260315
H57   H     H_    0.229762 0.338043 0.897818 0.256381
H58   H     H_    0.204456 0.375396 0.928878 0.252021
H59   H     H_    0.142412 0.318428 0.909675 0.196753
H60   H     H_    0.190469 0.332068 0.005293 0.220163
C145  C     C_3   0.692262 0.178719 0.960024 -0.416982
C146  C     C_3   0.728781 0.151746 0.944619 -0.862730
H61   H     H_    0.729933 0.161780 0.898194 0.256221
H62   H     H_    0.778419 0.148365 0.994379 0.260585
H63   H     H_    0.704786 0.124470 0.929514 0.251682
H64   H     H_    0.690705 0.167908 0.005713 0.219849
H65   H     H_    0.642572 0.181402 0.910018 0.196334
C147  C     C_3   0.226066 0.796909 0.883247 -0.390952
C148  C     C_3   0.159263 0.813513 0.841356 -0.866105
H66   H     H_    0.122627 0.791398 0.816469 0.261549
H67   H     H_    0.153563 0.830337 0.878948 0.266327
H68   H     H_    0.151603 0.831534 0.796526 0.252541
H69   H     H_    0.261804 0.819511 0.906539 0.219683
H70   H     H_    0.230967 0.780611 0.844452 0.216993
C149  C     C_3   0.307978 0.178791 0.040436 -0.416797
C150  C     C_3   0.271588 0.151852 0.056091 -0.863065
H71   H     H_    0.270459 0.161974 0.102485 0.255965
H72   H     H_    0.221942 0.148384 0.006391 0.260608
H73   H     H_    0.295668 0.124601 0.071357 0.251710
H74   H     H_    0.309535 0.167890 0.994799 0.219836
H75   H     H_    0.357672 0.181569 0.090395 0.196453
C151  C     C_3   0.774289 0.796408 0.117627 -0.392345
C152  C     C_3   0.841381 0.812651 0.160206 -0.864929
H76   H     H_    0.877647 0.790337 0.184794 0.261627
H77   H     H_    0.847579 0.829598 0.123149 0.266378
H78   H     H_    0.849131 0.830467 0.205334 0.252057
H79   H     H_    0.738916 0.819198 0.094635 0.219854
H80   H     H_    0.768894 0.779987 0.155904 0.217173
O53   O     O_3   0.699255 0.774743 0.575327 -0.640242
C153  C     C_3   0.677560 0.744988 0.596653 0.087963
H81   H     H_    0.688516 0.751782 0.651611 0.168819
H82   H     H_    0.701995 0.718245 0.603344 0.123313
C154  C     C_3   0.605236 0.740510 0.541726 -0.354608
H83   H     H_    0.581436 0.767271 0.535281 0.236570
H84   H     H_    0.593633 0.732182 0.487143 0.215937
C155  C     C_3   0.579403 0.711416 0.567670 -0.954713
H85   H     H_    0.589487 0.719379 0.621725 0.264481
H86   H     H_    0.601587 0.684219 0.573030 0.266715
H87   H     H_    0.526960 0.708930 0.526889 0.263247
O54   O     O_3   0.298909 0.223210 0.422907 -0.638278
C156  C     C_3   0.355312 0.241772 0.443192 0.076737
H88   H     H_    0.396534 0.231560 0.497448 0.144213
H89   H     H_    0.350613 0.272215 0.445933 0.136655
C157  C     C_3   0.368451 0.233853 0.385578 -0.303600
H90   H     H_    0.372414 0.203594 0.381304 0.229936
H91   H     H_    0.328037 0.244242 0.330976 0.224695
C158  C     C_3   0.430126 0.252219 0.405816 -0.986373
H92   H     H_    0.427026 0.282578 0.409529 0.266064
H93   H     H_    0.438086 0.246074 0.362765 0.267755
H94   H     H_    0.471397 0.241560 0.459479 0.269041
O55   O     O_3   0.302324 0.769522 0.423851 -0.636040
C159  C     C_3   0.327935 0.738159 0.412123 0.074450
H95   H     H_    0.291069 0.716184 0.382491 0.142646
H96   H     H_    0.369108 0.727123 0.465754 0.138138
C160  C     C_3   0.351137 0.749181 0.364949 -0.306050
H97   H     H_    0.310841 0.761332 0.312242 0.227240
H98   H     H_    0.389255 0.770332 0.394650 0.226053
C161  C     C_3   0.377249 0.716116 0.347820 -0.982044
H99   H     H_    0.339244 0.695152 0.315877 0.270460
H100  H     H_    0.417755 0.703504 0.399637 0.265342
H101  H     H_    0.394441 0.725239 0.314457 0.269911
O56   O     O_3   0.694391 0.235927 0.575863 -0.636388
C162  C     C_3   0.656927 0.266255 0.569251 0.076451
H102  H     H_    0.615589 0.270248 0.510834 0.140260
H103  H     H_    0.686200 0.291930 0.589941 0.141245
C163  C     C_3   0.631304 0.258809 0.615348 -0.309307
H104  H     H_    0.602279 0.233159 0.595507 0.224581
H105  H     H_    0.671945 0.254817 0.673973 0.228893
C164  C     C_3   0.590021 0.290626 0.610193 -0.980888
H106  H     H_    0.618465 0.316429 0.631317 0.270689
H107  H     H_    0.571955 0.284233 0.643918 0.266863
H108  H     H_    0.548570 0.294813 0.552126 0.266891
O57   O     O_3   0.200747 0.277118 0.574087 -0.639486
C165  C     C_3   0.178064 0.248276 0.596157 0.089273
H109  H     H_    0.183704 0.257350 0.647373 0.170644
H110  H     H_    0.205855 0.222151 0.610257 0.125488
C166  C     C_3   0.107168 0.241055 0.536816 -0.363165
H111  H     H_    0.080102 0.267281 0.522868 0.237692
H112  H     H_    0.100881 0.230289 0.486215 0.216727
C167  C     C_3   0.080023 0.213020 0.562956 -0.957431
H113  H     H_    0.083626 0.223578 0.612153 0.264515
H114  H     H_    0.106183 0.186482 0.576872 0.267752
H115  H     H_    0.029037 0.208041 0.518317 0.272466
O58   O     O_3   0.799568 0.725978 0.423916 -0.635572
C168  C     C_3   0.827365 0.755788 0.411148 0.074207
H116  H     H_    0.870983 0.765435 0.464236 0.139850
H117  H     H_    0.793203 0.779222 0.383808 0.140464
C169  C     C_3   0.845947 0.742918 0.360459 -0.304238
H118  H     H_    0.881157 0.720105 0.387469 0.227277
H119  H     H_    0.802880 0.732372 0.308085 0.226036
C170  C     C_3   0.874869 0.774213 0.342874 -0.984031
H120  H     H_    0.839809 0.796937 0.314054 0.270296
H121  H     H_    0.888059 0.763830 0.306360 0.269021
H122  H     H_    0.918463 0.784978 0.394337 0.266240
O59   O     O_3   0.806226 0.260114 0.426002 -0.640399
C171  C     C_3   0.815939 0.226271 0.402054 0.093616
H123  H     H_    0.816160 0.232241 0.353174 0.172366
H124  H     H_    0.776851 0.205893 0.383518 0.128117
C172  C     C_3   0.880444 0.209354 0.462283 -0.376601
H125  H     H_    0.918924 0.229917 0.480426 0.235713
H126  H     H_    0.880235 0.201705 0.510527 0.220438
C173  C     C_3   0.894329 0.174887 0.434436 -0.953186
H127  H     H_    0.897749 0.181982 0.388209 0.265191
H128  H     H_    0.856023 0.154105 0.415394 0.269041
H129  H     H_    0.940325 0.162628 0.479756 0.268067
O60   O     O_3   0.198362 0.730150 0.576235 -0.636171
C174  C     C_3   0.172579 0.761405 0.588010 0.074286
H130  H     H_    0.130394 0.771811 0.534479 0.139190
H131  H     H_    0.208778 0.783840 0.616051 0.141118
C175  C     C_3   0.151482 0.750484 0.637289 -0.304053
H132  H     H_    0.114498 0.728594 0.609618 0.226907
H133  H     H_    0.193046 0.739310 0.690226 0.226308
C176  C     C_3   0.124318 0.783331 0.653542 -0.984377
H134  H     H_    0.161166 0.805121 0.683248 0.270392
H135  H     H_    0.108957 0.774295 0.688759 0.270031
H136  H     H_    0.082357 0.794846 0.601462 0.265909

loop_
_geom_bond_atom_site_label_1
_geom_bond_atom_site_label_2
_ccdc_geom_bond_type
C99   C103  S    
C137  H44   S    
C168  H116  S    
C82   C94   S    
C50   O57   S    
C34   C42   A    
O3    Zn5   S    
O13   Zn9   S    
C110  C118  A    
C15   H15   S    
C114  C115  A    
C139  H50   S    
C129  C137  S    
O53   C153  S    
C148  H68   S    
C46   C62   S    
C104  O28   A    
C39   C47   A    
C106  O32   A    
C85   O13   A    
C96   C99   T    
C100  C104  S    
C1    O45   A    
C146  H61   S    
C110  C111  A    
O21   Zn9   S    
C159  H95   S    
O14   Zn10  S    
O51   Zn15  S    
C25   C133  S    
C155  H87   S    
O4    Zn6   S    
C137  C138  S    
O15   Zn11  S    
C42   C58   S    
C73   C81   A    
C171  H123  S    
C65   C87   S    
C149  H75   S    
C67   C85   S    
C161  H99   S    
O55   C159  S    
C150  H73   S    
O41   Zn5   S    
C162  H103  S    
C51   O60   S    
C1    O5    A    
O31   Zn1   S    
C20   C28   S    
C94   C97   T    
C98   C102  S    
C21   C29   S    
C35   H27   S    
O45   Zn9   S    
C157  H90   S    
C23   C31   S    
C33   H25   S    
O33   Zn7   S    
O2    Zn4   S    
C91   O19   A    
C108  O34   A    
O52   Zn16  S    
C89   O17   A    
C167  H113  S    
C12   C20   S    
C156  H89   S    
C13   C21   S    
O11   Zn5   S    
C136  C151  S    
C124  C127  T    
O3    Zn7   S    
O9    Zn7   S    
C168  C169  S    
O4    Zn14  S    
C36   C44   A    
C37   C45   A    
O37   Zn1   S    
O1    Zn9   S    
C14   C130  S    
C40   C48   A    
C1    C20   S    
C2    C19   S    
C92   O20   A    
C106  O30   A    
O36   Zn6   S    
C119  C123  S    
C7    C22   S    
C6    O10   A    
C145  H64   S    
C113  H8    S    
C105  C125  S    
C17   C25   S    
C114  H7    S    
C107  C127  S    
C36   C55   A    
O47   Zn11  S    
C37   C50   A    
C7    O51   A    
C10   C18   S    
C159  C160  S    
C5    O49   A    
C41   C57   S    
C162  H102  S    
O35   Zn5   S    
O4    Zn8   S    
C52   O59   S    
O60   C174  S    
C171  C172  S    
O3    Zn15  S    
C139  C140  S    
C176  H135  S    
C9    C133  S    
C158  H93   S    
C166  H111  S    
C48   C56   A    
C11   H11   S    
C8    O52   A    
C152  H77   S    
C23   C136  S    
C157  C158  S    
C7    O11   A    
C80   H37   S    
O2    Zn2   S    
C143  H59   S    
C66   C88   S    
C140  H46   S    
C144  H58   S    
C101  O21   A    
O16   Zn12  S    
O26   Zn14  S    
C167  H115  S    
O54   C156  S    
C118  C122  S    
C9    H9    S    
C173  H127  S    
C31   C131  S    
C147  H69   S    
C29   C129  S    
C154  H84   S    
C35   C43   A    
C43   C59   S    
O1    Zn11  S    
C44   C52   A    
C16   C27   S    
C45   C53   A    
C169  H118  S    
C108  O36   A    
C155  H86   S    
C145  C146  S    
O10   Zn8   S    
C164  H107  S    
C40   C51   A    
C153  H82   S    
C86   O14   A    
C133  C145  S    
C22   C133  S    
O43   Zn7   S    
C147  C148  S    
C76   C82   A    
C160  H98   S    
O56   C162  S    
C174  C175  S    
C37   H29   S    
C116  C120  A    
C173  H129  S    
C150  H72   S    
C86   O38   A    
C26   C134  S    
C72   C90   S    
C165  H110  S    
C172  C173  S    
C108  C128  S    
C73   H36   S    
O48   Zn12  S    
C74   H35   S    
O3    Zn13  S    
C9    C30   S    
C42   C50   A    
C10   H10   S    
C11   C32   S    
C166  C167  S    
C163  H105  S    
C12   C31   S    
C78   H39   S    
C170  H122  S    
C13   C26   S    
O29   Zn3   S    
C165  C166  S    
C19   C132  S    
O19   Zn15  S    
C138  H41   S    
C3    O47   A    
C22   C30   S    
C35   C56   A    
O17   Zn13  S    
C142  H51   S    
C34   H26   S    
O23   Zn11  S    
C140  H48   S    
C144  H56   S    
C101  O23   A    
C148  H67   S    
C163  C164  S    
C115  C119  A    
C111  C117  A    
C27   C135  S    
C14   C22   S    
C122  C125  T    
C151  H79   S    
C12   H12   S    
C146  H62   S    
C137  H45   S    
C147  H70   S    
C90   O42   A    
C15   C28   S    
C15   C131  S    
C159  H96   S    
C12   C136  S    
C13   C129  S    
C149  H74   S    
C69   C91   S    
C3    O7    A    
C169  C170  S    
C138  H43   S    
C175  H132  S    
C146  H63   S    
C18   C26   S    
C5    O9    A    
C80   C84   A    
O2    Zn12  S    
C109  C117  A    
C174  H130  S    
C38   C49   A    
C8    O12   A    
C11   C19   S    
C161  H100  S    
C109  H4    S    
C110  H3    S    
C47   C63   S    
C151  C152  S    
C48   C64   S    
C107  O35   A    
O49   Zn13  S    
C172  H125  S    
C2    O46   A    
C157  H91   S    
C41   C49   A    
O22   Zn10  S    
C113  C119  A    
C161  H101  S    
C167  H114  S    
C170  H120  S    
O34   Zn8   S    
C57   C70   T    
C56   O55   S    
C88   O40   A    
O7    Zn1   S    
C59   C72   T    
C33   C54   A    
C17   C130  S    
C115  H6    S    
C168  H117  S    
C49   O58   S    
C79   H38   S    
C74   C82   A    
C142  H53   S    
C54   O53   S    
C169  H119  S    
O28   Zn16  S    
C139  H49   S    
C27   H19   S    
C25   H17   S    
C77   H40   S    
C141  H54   S    
C152  H76   S    
C95   C100  T    
C29   H21   S    
C175  C176  S    
C30   C130  S    
O30   Zn4   S    
O24   Zn12  S    
C102  O24   A    
C97   C101  S    
C149  C150  S    
C90   O18   A    
C46   C54   A    
C75   H34   S    
C16   H16   S    
C131  C141  S    
C4    C17   S    
C73   C76   A    
C20   C131  S    
O38   Zn2   S    
C21   C134  S    
O2    Zn10  S    
O12   Zn6   S    
C87   O15   A    
C176  H134  S    
C77   C80   A    
C88   O16   A    
C28   C136  S    
C112  H1    S    
C70   C92   S    
C162  C163  S    
C58   C69   T    
C105  O29   A    
C107  O33   A    
C130  C139  S    
C106  C126  S    
C60   C71   T    
C33   C41   A    
O8    Zn2   S    
C160  H97   S    
C143  H60   S    
C79   C83   A    
C144  H57   S    
C10   C29   S    
C43   C51   A    
C156  H88   S    
C44   C60   S    
C6    O50   A    
C45   C61   S    
C14   C25   S    
C76   H33   S    
C16   C132  S    
C173  H128  S    
O50   Zn14  S    
C132  C143  S    
C116  H5    S    
C121  C126  T    
C34   C53   A    
C154  H83   S    
C36   H28   S    
C87   O39   A    
C18   C129  S    
C114  C120  A    
C111  H2    S    
C68   C86   S    
O59   C171  S    
C24   C32   S    
C165  H109  S    
C164  H106  S    
C153  C154  S    
C145  H65   S    
O20   Zn16  S    
O39   Zn3   S    
C11   C135  S    
C102  O22   A    
O1    Zn1   S    
C174  H131  S    
O27   Zn15  S    
C77   C83   A    
O25   Zn13  S    
C3    C18   S    
C2    O6    A    
C53   O54   S    
C92   O44   A    
C117  C121  S    
C61   C66   T    
C172  H126  S    
C19   C27   S    
C176  H136  S    
C15   C23   S    
C158  H92   S    
C158  H94   S    
C16   C24   S    
C91   O43   A    
C170  H121  S    
C14   H14   S    
C105  O31   A    
C152  H78   S    
O4    Zn16  S    
C38   H30   S    
C138  H42   S    
C38   C46   A    
C74   C75   A    
C64   C67   T    
O42   Zn6   S    
C142  H52   S    
C109  C112  A    
C140  H47   S    
C78   C79   A    
C75   C81   A    
C156  C157  S    
C148  H66   S    
C4    O48   A    
O46   Zn10  S    
C104  O26   A    
C151  H80   S    
C171  H124  S    
C141  H55   S    
C85   O37   A    
C81   C93   S    
C71   C89   S    
C154  C155  S    
C83   C95   S    
C8    C21   S    
C4    O8    A    
C24   C135  S    
C9    C17   S    
C26   H18   S    
C135  C149  S    
C141  C142  S    
C84   C96   S    
C32   C132  S    
C155  H85   S    
C47   C55   A    
C164  H108  S    
O6    Zn4   S    
C30   H22   S    
C153  H81   S    
C175  H133  S    
O18   Zn14  S    
C62   C65   T    
C63   C68   T    
O44   Zn8   S    
C10   C134  S    
O1    Zn3   S    
C160  C161  S    
C150  H71   S    
C113  C116  A    
C13   H13   S    
C103  O25   A    
C112  C118  A    
C123  C128  T    
C5    C24   S    
O5    Zn3   S    
C6    C23   S    
O58   C168  S    
O40   Zn4   S    
C39   C52   A    
C39   H31   S    
C103  O27   A    
C134  C147  S    
C40   H32   S    
C143  C144  S    
C89   O41   A    
C78   C84   A    
C166  H112  S    
C163  H104  S    
C28   H20   S    
C55   O56   S    
O57   C165  S    
C93   C98   T    
C31   H23   S    
C120  C124  S    
O32   Zn2   S    
C32   H24   S    
