data_mof_unit_pretest_73.cif
_audit_creation_date              2013-03-05T16:05:46-0500
_audit_creation_method            fapswitch 2.2
_symmetry_space_group_name_H-M    P1
_symmetry_Int_Tables_number       1
_space_group_crystal_system       triclinic
_cell_length_a                    9.605909
_cell_length_b                    10.777056
_cell_length_c                    17.355269
_cell_angle_alpha                 92.597947
_cell_angle_beta                  86.642748
_cell_angle_gamma                 91.469403
_cell_volume                      1791.27374154

loop_
_atom_site_label
_atom_site_type_symbol
_atom_site_description
_atom_site_fract_x
_atom_site_fract_y
_atom_site_fract_z
_atom_type_partial_charge
O1    O     O_R   0.381260 0.680340 0.500000 -0.603543
O2    O     O_R   0.618740 0.319660 0.500000 -0.603900
O3    O     O_R   0.618830 0.680370 0.500010 -0.512320
O4    O     O_R   0.381170 0.319630 0.499990 -0.511338
C1    C     C_R   0.501161 0.737600 0.500236 0.810728
C2    C     C_R   0.498852 0.262398 0.499809 0.812648
O5    O     O_R   0.367440 0.500000 0.613600 -0.602359
O6    O     O_R   0.632560 0.500000 0.386400 -0.599462
O7    O     O_R   0.605010 0.500030 0.613600 -0.545701
O8    O     O_R   0.394990 0.499970 0.386400 -0.542717
C3    C     C_R   0.482311 0.501219 0.649752 0.835465
C4    C     C_R   0.517691 0.498917 0.350248 0.834610
Cu1   Cu    Cu3+1 0.359340 0.499980 0.500000 1.029896
Cu2   Cu    Cu3+1 0.640660 0.500020 0.500000 1.029601
C5    C     C_R   0.473708 0.507114 0.734197 -0.092678
C6    C     C_R   0.526314 0.493612 0.265800 -0.101814
C7    C     C_R   0.596136 0.510353 0.774144 -0.128481
C8    C     C_R   0.403907 0.490811 0.225845 -0.124913
C9    C     C_R   0.589056 0.518523 0.854023 -0.163621
C10   C     C_R   0.411013 0.483326 0.145955 -0.163791
C11   C     C_R   0.459391 0.521448 0.895690 0.034168
C12   C     C_R   0.540688 0.480634 0.104299 0.031592
C13   C     C_R   0.334700 0.518574 0.856174 0.357574
C14   C     C_R   0.665361 0.483217 0.143818 0.353786
C15   C     C_R   0.343612 0.512253 0.775329 -0.243582
C16   C     C_R   0.656424 0.488859 0.224664 -0.237823
C17   C     C_2   0.456500 0.533112 0.980115 -0.128972
C18   C     C_2   0.543638 0.469189 0.019873 -0.126888
H1    H     H_    0.697904 0.507936 0.743807 0.190204
H2    H     H_    0.302137 0.493045 0.256181 0.202859
H3    H     H_    0.751501 0.491495 0.255376 0.201855
H4    H     H_    0.248521 0.509398 0.744621 0.191662
H5    H     H_    0.619462 0.408221 0.990007 0.189976
H6    H     H_    0.380656 0.594063 0.009977 0.189169
H7    H     H_    0.314356 0.477491 0.116691 0.206471
H8    H     H_    0.685728 0.524620 0.883268 0.204016
C19   C     C_R   0.609391 0.935759 0.460580 -0.090780
C20   C     C_R   0.390863 0.064244 0.539688 -0.086016
H9    H     H_    0.692639 0.886558 0.428511 0.171990
H10   H     H_    0.307756 0.113450 0.571872 0.179609
C21   C     C_R   0.607849 0.064203 0.460188 -0.140409
C22   C     C_R   0.392331 0.935793 0.540018 -0.137952
H11   H     H_    0.691209 0.113302 0.428616 0.166222
H12   H     H_    0.308985 0.886687 0.571596 0.172289
C23   C     C_R   0.498085 0.128411 0.499360 -0.025311
C24   C     C_R   0.502026 0.871585 0.500791 -0.024379
C25   C     C_R   0.928249 0.589803 0.542460 0.435630
C26   C     C_R   0.071704 0.410123 0.457597 0.499335
C27   C     C_R   0.075590 0.587882 0.541296 -0.161800
C28   C     C_R   0.924393 0.412227 0.458614 -0.124844
H13   H     H_    0.134031 0.658342 0.572821 0.201249
H14   H     H_    0.865885 0.341873 0.427053 0.207648
N1    N     N_R   0.147930 0.499970 0.499980 -0.253664
N2    N     N_R   0.852070 0.500030 0.500020 -0.253826
N3    N     N_R   0.199342 0.518853 0.896583 0.128566
O9    O     O_R   0.176672 0.458757 0.959639 -0.307767
O10   O     O_R   0.093767 0.565724 0.865292 -0.333260
N4    N     N_R   0.800723 0.483301 0.103409 0.127202
O11   O     O_R   0.823304 0.543798 0.040503 -0.310754
O12   O     O_R   0.906362 0.436297 0.134563 -0.311350
S1    S     S_3+6 0.860022 0.723381 0.595038 0.034774
O13   O     O_2   0.851815 0.825617 0.539679 -0.259376
O14   O     O_2   0.720317 0.705259 0.636303 -0.278309
O15   O     O_3   0.971300 0.772153 0.662074 -0.517186
H15   H     H_    0.968508 0.705333 0.699565 0.350968
S2    S     S_3+6 0.139777 0.276060 0.405576 0.017213
O16   O     O_2   0.278605 0.295169 0.363558 -0.276346
O17   O     O_2   0.149316 0.174911 0.461614 -0.306303
O18   O     O_3   0.027483 0.226832 0.339135 -0.554481
H16   H     H_    0.058436 0.142724 0.321539 0.389041

loop_
_geom_bond_atom_site_label_1
_geom_bond_atom_site_label_2
_geom_bond_distance
_ccdc_geom_bond_type
C25   S1    1.787135 S    
S1    O15   1.683403 S    
C20   H10   1.083125 S    
O7    Cu2   1.981217 S    
O8    Cu1   1.981219 S    
C13   N3    1.440720 S    
C9    C11   1.403484 A    
C8    H2    1.083167 S    
C2    C23   1.443486 S    
C25   C27   1.414974 A    
C7    H1    1.083202 S    
C1    C24   1.443374 S    
C8    C10   1.382979 A    
S1    O13   1.500853 D    
O6    C4    1.300422 A    
C17   C18   1.338524 D    
O15   H15   0.991007 S    
O3    C1    1.301172 A    
N3    O9    1.301380 A    
C26   C28   1.414890 A    
S2    O16   1.496063 D    
C11   C17   1.463607 S    
C16   H3    1.083215 S    
C19   H9    1.083169 S    
C6    C8    1.398617 A    
C12   C18   1.463520 S    
Cu1   Cu2   2.702322 S    
O5    C3    1.300396 A    
C21   H11   1.083789 S    
O7    C3    1.302476 A    
C17   H6    1.086427 S    
C28   N2    1.344633 A    
O3    Cu2   1.960251 S    
C22   H12   1.083779 S    
C15   H4    1.083246 S    
C25   N2    1.405795 A    
C27   N1    1.344797 A    
O8    C4    1.302484 A    
C12   C14   1.413567 A    
O18   H16   0.990648 S    
Cu2   N2    2.030803 S    
C10   C12   1.403433 A    
C18   H5    1.086440 S    
C20   C22   1.385033 A    
Cu1   N1    2.030804 S    
C9    H8    1.083203 S    
N3    O10   1.301612 A    
C11   C13   1.413619 A    
C19   C21   1.385046 A    
C26   N1    1.406037 A    
O2    Cu2   1.949746 S    
O1    C1    1.292767 A    
C5    C15   1.403525 A    
S2    O18   1.683909 S    
O1    Cu1   1.949746 S    
S2    O17   1.501405 D    
N4    O12   1.301591 A    
C4    C6    1.461695 S    
O5    Cu1   1.977631 S    
C13   C15   1.399351 A    
C14   N4    1.440740 S    
O4    C2    1.301345 A    
C22   C24   1.401178 A    
C28   H14   1.080430 S    
C5    C7    1.398608 A    
C21   C23   1.401261 A    
C7    C9    1.382919 A    
C20   C23   1.397080 A    
O6    Cu2   1.977633 S    
C26   S2    1.786401 S    
C19   C24   1.397102 A    
N4    O11   1.301386 A    
C3    C5    1.461630 S    
C10   H7    1.083195 S    
S1    O14   1.496223 D    
O2    C2    1.292638 A    
O4    Cu1   1.960251 S    
C14   C16   1.399350 A    
C27   H13   1.080531 S    
C6    C16   1.403511 A    
