data_mof_unit_pretest_1722.cif
_audit_creation_date              2012-10-26T18:03:06-0400
_audit_creation_method            fapswitch 2.2
_symmetry_space_group_name_H-M    P1
_symmetry_Int_Tables_number       1
_space_group_crystal_system       triclinic
_cell_length_a                    18.38353
_cell_length_b                    18.383531
_cell_length_c                    35.705338
_cell_angle_alpha                 89.999745
_cell_angle_beta                  89.999667
_cell_angle_gamma                 90.000027
_cell_volume                      12066.7687123

loop_
_atom_site_label
_atom_site_type_symbol
_atom_type_description
_atom_site_fract_x
_atom_site_fract_y
_atom_site_fract_z
_atom_type_partial_charge
C1    C     C_R   0.500000 0.139780 0.500000 0.561157
C2    C     C_1   0.717586 0.500000 0.500000 -0.044792
C3    C     C_3   0.144890 0.594710 0.195207 -0.120916
C4    C     C_3   0.405290 0.855110 0.804793 -0.120916
C5    C     C_3   0.855116 0.594712 0.804789 -0.120919
C6    C     C_3   0.594709 0.144889 0.804790 -0.120916
C7    C     C_3   0.144887 0.405288 0.804790 -0.120917
C8    C     C_3   0.905289 0.644884 0.695211 -0.120917
C9    C     C_3   0.355110 0.905292 0.695210 -0.120915
C10   C     C_3   0.094711 0.355112 0.695209 -0.120916
C11   C     C_3   0.644890 0.094709 0.695207 -0.120916
C12   C     C_3   0.905290 0.355110 0.304793 -0.120916
C13   C     C_1   0.500000 0.717586 0.500000 -0.044792
C14   C     C_3   0.355115 0.094710 0.304789 -0.120918
C15   C     C_3   0.094709 0.644889 0.304789 -0.120916
C16   C     C_3   0.644889 0.905291 0.304790 -0.120917
C17   C     C_1   0.282414 0.500000 0.500000 -0.044792
C18   C     C_1   0.000000 0.782414 0.000000 -0.044792
C19   C     C_1   0.217586 1.000000 1.000000 -0.044792
C20   C     C_1   1.000000 0.217586 1.000000 -0.044792
C21   C     C_1   0.782414 0.000000 0.000000 -0.044792
C22   C     C_1   0.500000 0.217200 0.500000 -0.046534
C23   C     C_1   0.782800 0.500000 0.500000 -0.046534
C24   C     C_1   0.500000 0.782800 0.500000 -0.046534
C25   C     C_R   0.860220 0.500000 0.500000 0.561157
C26   C     C_1   0.217200 0.500000 0.500000 -0.046534
C27   C     C_1   0.000000 0.717200 0.000000 -0.046534
C28   C     C_1   0.282800 1.000000 1.000000 -0.046534
C29   C     C_1   1.000000 0.282800 1.000000 -0.046534
C30   C     C_1   0.717200 0.000000 0.000000 -0.046534
C31   C     C_R   0.500000 1.000000 0.427777 0.554195
C32   C     C_R   1.000000 0.500000 0.427777 0.554195
C33   C     C_R   0.500000 1.000000 0.572223 0.554195
C34   C     C_R   0.000000 0.500000 0.572223 0.554196
C35   C     C_R   0.000000 0.500000 0.927777 0.554196
C36   C     C_R   0.500000 0.860220 0.500000 0.561157
C37   C     C_R   0.500000 0.000000 0.927776 0.554195
C38   C     C_R   1.000000 0.500000 0.072223 0.554195
C39   C     C_R   0.500000 1.000000 0.072223 0.554195
C40   C     C_R   0.488696 0.065241 0.173010 0.241496
C41   C     C_R   0.934756 0.488699 0.173011 0.241496
C42   C     C_R   0.511305 0.934757 0.173011 0.241497
C43   C     C_R   0.065242 0.511302 0.173010 0.241496
C44   C     C_R   0.488698 0.934758 0.826990 0.241496
C45   C     C_R   0.934758 0.511302 0.826990 0.241496
C46   C     C_R   0.511301 0.065243 0.826989 0.241496
C47   C     C_R   0.139780 0.500000 0.500000 0.561157
C48   C     C_R   0.065243 0.488697 0.826989 0.241497
C49   C     C_R   0.988698 0.565242 0.673010 0.241496
C50   C     C_R   0.434756 0.988699 0.673011 0.241496
C51   C     C_R   0.011303 0.434757 0.673011 0.241497
C52   C     C_R   0.565242 0.011302 0.673010 0.241496
C53   C     C_R   0.988698 0.434758 0.326989 0.241496
C54   C     C_R   0.434758 0.011302 0.326989 0.241496
C55   C     C_R   0.011301 0.565243 0.326989 0.241496
C56   C     C_R   0.565243 0.988698 0.326989 0.241497
C57   C     C_R   0.490274 0.065144 0.133717 -0.124834
C58   C     C_R   0.000000 0.639780 0.000000 0.561157
C59   C     C_R   0.934854 0.490277 0.133717 -0.124836
C60   C     C_R   0.509726 0.934855 0.133717 -0.124836
C61   C     C_R   0.065145 0.509724 0.133717 -0.124837
C62   C     C_R   0.490276 0.934855 0.866283 -0.124837
C63   C     C_R   0.934855 0.509724 0.866283 -0.124834
C64   C     C_R   0.509723 0.065146 0.866283 -0.124836
C65   C     C_R   0.065146 0.490275 0.866283 -0.124836
C66   C     C_R   0.990276 0.565145 0.633717 -0.124834
C67   C     C_R   0.434854 0.990277 0.633717 -0.124836
C68   C     C_R   0.009725 0.434854 0.633717 -0.124836
C69   C     C_R   0.360220 1.000000 1.000000 0.561157
C70   C     C_R   0.565145 0.009724 0.633717 -0.124837
C71   C     C_R   0.990276 0.434855 0.366283 -0.124838
C72   C     C_R   0.434855 0.009723 0.366283 -0.124834
C73   C     C_R   0.009723 0.565146 0.366283 -0.124836
C74   C     C_R   0.565146 0.990276 0.366283 -0.124836
C75   C     C_R   0.500000 1.000000 0.113727 -0.079240
C76   C     C_R   0.999999 0.500000 0.113727 -0.079240
C77   C     C_R   0.500000 0.000000 0.886273 -0.079239
C78   C     C_R   0.000000 0.500000 0.886273 -0.079240
C79   C     C_R   0.000000 0.500000 0.613727 -0.079240
C80   C     C_R   1.000000 0.360220 1.000000 0.561157
C81   C     C_R   0.499999 0.000000 0.613727 -0.079240
C82   C     C_R   1.000000 0.500000 0.386273 -0.079239
C83   C     C_R   0.500000 1.000000 0.386273 -0.079240
C84   C     C_R   0.359837 0.500000 0.500000 0.560033
C85   C     C_R   0.500000 0.359837 0.500000 0.560033
C86   C     C_R   0.640163 0.500000 0.500000 0.560033
C87   C     C_R   0.500000 0.640163 0.500000 0.560033
C88   C     C_R   0.859837 0.000000 0.000000 0.560033
C89   C     C_R   0.000000 0.859837 0.000000 0.560033
C90   C     C_R   0.140163 1.000000 1.000000 0.560033
C91   C     C_R   0.639780 0.000000 0.000000 0.561157
C92   C     C_R   1.000000 0.140163 1.000000 0.560033
C93   C     C_R   0.500000 0.999999 0.192715 0.046171
C94   C     C_R   0.999999 0.500001 0.192715 0.046173
C95   C     C_R   0.499999 0.000001 0.807285 0.046173
C96   C     C_R   0.000001 0.500000 0.807285 0.046171
C97   C     C_R   0.000000 0.499999 0.692715 0.046171
C98   C     C_R   0.499999 0.000001 0.692715 0.046173
C99   C     C_R   0.999999 0.500001 0.307285 0.046173
C100  C     C_R   0.500001 1.000000 0.307285 0.046171
C101  C     C_1   0.500001 0.999999 0.233123 0.074974
C102  C     C_1   0.500000 0.282414 0.500000 -0.044792
C103  C     C_1   0.999999 0.500001 0.233123 0.074980
C104  C     C_1   0.499999 0.000001 0.766877 0.074980
C105  C     C_1   0.000001 0.499999 0.766877 0.074975
C106  C     C_1   0.000001 0.499999 0.733123 0.074974
C107  C     C_1   0.499999 0.000001 0.733123 0.074980
C108  C     C_1   0.999999 0.500001 0.266877 0.074980
C109  C     C_1   0.500001 0.999999 0.266877 0.074974
C110  C     C_3   0.405284 0.144881 0.195211 -0.120919
C111  C     C_3   0.855110 0.405292 0.195210 -0.120915
C112  C     C_3   0.594716 0.855115 0.195209 -0.120916
Cu1   Cu    Cu3+1 0.572400 0.000000 0.500000 0.954955
Cu2   Cu    Cu3+1 0.500000 0.500000 0.537120 0.965338
Cu3   Cu    Cu3+1 0.000000 0.000000 0.962880 0.965338
Cu4   Cu    Cu3+1 0.000000 0.000000 0.037120 0.965337
Cu5   Cu    Cu3+1 0.000000 0.572400 0.500000 0.954956
Cu6   Cu    Cu3+1 0.427600 0.000000 0.500000 0.954956
Cu7   Cu    Cu3+1 0.000000 0.427600 0.500000 0.954955
Cu8   Cu    Cu3+1 0.072400 0.500000 0.000000 0.954955
Cu9   Cu    Cu3+1 0.500000 0.072400 0.000000 0.954956
Cu10  Cu    Cu3+1 0.927600 0.500000 0.000000 0.954956
Cu11  Cu    Cu3+1 0.500000 0.927600 0.000000 0.954955
Cu12  Cu    Cu3+1 0.500000 0.500000 0.462880 0.965338
H1    H     H_    0.483054 0.116128 0.118975 0.155014
H2    H     H_    0.383870 0.983059 0.618976 0.155012
H3    H     H_    0.016943 0.383870 0.618975 0.155012
H4    H     H_    0.616129 0.016941 0.618975 0.155011
H5    H     H_    0.983059 0.383871 0.381025 0.155011
H6    H     H_    0.383871 0.016941 0.381025 0.155014
H7    H     H_    0.016941 0.616130 0.381024 0.155013
H8    H     H_    0.616130 0.983059 0.381024 0.155012
H9    H     H_    0.376373 0.100856 0.210633 0.122280
H10   H     H_    0.380138 0.153374 0.167191 0.120698
H11   H     H_    0.398240 0.195850 0.211439 0.145842
H12   H     H_    0.883870 0.483059 0.118975 0.155012
H13   H     H_    0.899133 0.376375 0.210631 0.122280
H14   H     H_    0.846614 0.380148 0.167190 0.120695
H15   H     H_    0.804141 0.398250 0.211438 0.145844
H16   H     H_    0.623630 0.899139 0.210630 0.122280
H17   H     H_    0.619860 0.846620 0.167189 0.120696
H18   H     H_    0.601760 0.804146 0.211438 0.145843
H19   H     H_    0.100867 0.623629 0.210627 0.122278
H20   H     H_    0.153388 0.619850 0.167186 0.120695
H21   H     H_    0.195858 0.601751 0.211436 0.145843
H22   H     H_    0.376371 0.899132 0.789374 0.122278
H23   H     H_    0.516946 0.883871 0.118975 0.155012
H24   H     H_    0.380150 0.846611 0.832814 0.120695
H25   H     H_    0.398248 0.804141 0.788565 0.145844
H26   H     H_    0.899140 0.623625 0.789368 0.122279
H27   H     H_    0.846620 0.619857 0.832809 0.120697
H28   H     H_    0.804147 0.601754 0.788561 0.145842
H29   H     H_    0.623624 0.100866 0.789369 0.122280
H30   H     H_    0.619853 0.153385 0.832810 0.120695
H31   H     H_    0.601750 0.195858 0.788561 0.145844
H32   H     H_    0.100864 0.376373 0.789369 0.122280
H33   H     H_    0.153383 0.380144 0.832811 0.120696
H34   H     H_    0.116129 0.516941 0.118975 0.155011
H35   H     H_    0.195857 0.398246 0.788562 0.145843
H36   H     H_    0.876376 0.600860 0.710633 0.122279
H37   H     H_    0.880141 0.653378 0.667192 0.120697
H38   H     H_    0.898246 0.695853 0.711440 0.145842
H39   H     H_    0.399133 0.876375 0.710631 0.122280
H40   H     H_    0.346614 0.880148 0.667190 0.120695
H41   H     H_    0.304141 0.898250 0.711438 0.145844
H42   H     H_    0.123627 0.399135 0.710629 0.122279
H43   H     H_    0.119855 0.346616 0.667189 0.120696
H44   H     H_    0.101754 0.304143 0.711438 0.145843
H45   H     H_    0.483059 0.883871 0.881025 0.155011
H46   H     H_    0.600867 0.123629 0.710627 0.122278
H47   H     H_    0.653388 0.119850 0.667186 0.120695
H48   H     H_    0.695859 0.101751 0.711436 0.145843
H49   H     H_    0.876371 0.399132 0.289374 0.122278
H50   H     H_    0.880150 0.346611 0.332814 0.120695
H51   H     H_    0.898249 0.304141 0.288565 0.145843
H52   H     H_    0.399138 0.123623 0.289367 0.122280
H53   H     H_    0.346620 0.119856 0.332809 0.120697
H54   H     H_    0.304145 0.101751 0.288561 0.145842
H55   H     H_    0.123624 0.600866 0.289368 0.122280
H56   H     H_    0.883871 0.516942 0.881025 0.155014
H57   H     H_    0.119853 0.653384 0.332810 0.120695
H58   H     H_    0.101750 0.695858 0.288561 0.145844
H59   H     H_    0.600866 0.876375 0.289370 0.122281
H60   H     H_    0.653385 0.880147 0.332811 0.120696
H61   H     H_    0.695858 0.898249 0.288562 0.145843
H62   H     H_    0.516941 0.116130 0.881024 0.155013
H63   H     H_    0.116130 0.483057 0.881024 0.155012
H64   H     H_    0.983058 0.616129 0.618975 0.155014
O1    O     O_R   0.561120 0.105710 0.500130 -0.501064
O2    O     O_R   0.394290 0.061120 0.000130 -0.501063
O3    O     O_R   0.938880 0.394290 0.000130 -0.501063
O4    O     O_R   0.605710 0.938880 0.000130 -0.501064
O5    O     O_R   0.061120 0.394290 0.999870 -0.501063
O6    O     O_R   0.394290 0.938880 0.999870 -0.501064
O7    O     O_R   0.938880 0.605710 0.999870 -0.501063
O8    O     O_R   0.605710 0.061120 0.999870 -0.501063
O9    O     O_R   0.561120 0.999900 0.445770 -0.508172
O10   O     O_R   0.000100 0.561120 0.445770 -0.508172
O11   O     O_R   0.438880 0.000100 0.445770 -0.508172
O12   O     O_R   0.894290 0.561120 0.500130 -0.501063
O13   O     O_R   0.999900 0.438880 0.445770 -0.508172
O14   O     O_R   0.561120 0.000100 0.554230 -0.508172
O15   O     O_R   0.000100 0.438880 0.554230 -0.508173
O16   O     O_R   0.438880 0.999900 0.554230 -0.508172
O17   O     O_R   0.999900 0.561120 0.554230 -0.508173
O18   O     O_R   0.061120 0.499900 0.945770 -0.508172
O19   O     O_R   0.500100 0.061120 0.945770 -0.508172
O20   O     O_R   0.938880 0.500100 0.945770 -0.508173
O21   O     O_R   0.499900 0.938880 0.945770 -0.508172
O22   O     O_R   0.061120 0.500100 0.054230 -0.508172
O23   O     O_R   0.438880 0.894290 0.500130 -0.501063
O24   O     O_R   0.500100 0.938880 0.054230 -0.508172
O25   O     O_R   0.938880 0.499900 0.054230 -0.508172
O26   O     O_R   0.499900 0.061120 0.054230 -0.508172
O27   O     O_R   0.394010 0.499860 0.468680 -0.503890
O28   O     O_R   0.500140 0.394010 0.468680 -0.503890
O29   O     O_R   0.605990 0.500140 0.468680 -0.503890
O30   O     O_R   0.499860 0.605990 0.468680 -0.503890
O31   O     O_R   0.394010 0.500140 0.531320 -0.503890
O32   O     O_R   0.500140 0.605990 0.531320 -0.503890
O33   O     O_R   0.605990 0.499860 0.531320 -0.503890
O34   O     O_R   0.105710 0.438880 0.500130 -0.501063
O35   O     O_R   0.499860 0.394010 0.531320 -0.503890
O36   O     O_R   0.894010 0.999860 0.968680 -0.503890
O37   O     O_R   0.000140 0.894010 0.968680 -0.503890
O38   O     O_R   0.105990 0.000140 0.968680 -0.503890
O39   O     O_R   0.999860 0.105990 0.968680 -0.503890
O40   O     O_R   0.894010 0.000140 0.031320 -0.503890
O41   O     O_R   0.000140 0.105990 0.031320 -0.503890
O42   O     O_R   0.105990 0.999860 0.031320 -0.503890
O43   O     O_R   0.999860 0.894010 0.031320 -0.503890
O44   O     O_3   0.480279 0.130063 0.192130 -0.558246
O45   O     O_R   0.561120 0.894290 0.499870 -0.501063
O46   O     O_3   0.869934 0.480286 0.192130 -0.558245
O47   O     O_3   0.519721 0.869936 0.192130 -0.558246
O48   O     O_3   0.130063 0.519715 0.192130 -0.558245
O49   O     O_3   0.480284 0.869936 0.807870 -0.558245
O50   O     O_3   0.869937 0.519717 0.807870 -0.558245
O51   O     O_3   0.519714 0.130065 0.807870 -0.558245
O52   O     O_3   0.130065 0.480283 0.807870 -0.558245
O53   O     O_3   0.980283 0.630064 0.692130 -0.558245
O54   O     O_3   0.369934 0.980286 0.692130 -0.558245
O55   O     O_3   0.019717 0.369935 0.692130 -0.558245
O56   O     O_R   0.894290 0.438880 0.499870 -0.501064
O57   O     O_3   0.630063 0.019715 0.692130 -0.558245
O58   O     O_3   0.980285 0.369936 0.307870 -0.558245
O59   O     O_3   0.369936 0.019715 0.307870 -0.558245
O60   O     O_3   0.019714 0.630065 0.307870 -0.558245
O61   O     O_3   0.630065 0.980285 0.307870 -0.558245
O62   O     O_R   0.438880 0.105710 0.499870 -0.501063
O63   O     O_R   0.105710 0.561120 0.499870 -0.501063
O64   O     O_R   0.061120 0.605710 0.000130 -0.501064

loop_
_geom_bond_atom_site_label_1
_geom_bond_atom_site_label_2
_ccdc_geom_bond_type
C51   C97   A    
C96   C105  S    
C73   H7    S    
C52   C70   A    
C11   H47   S    
C15   H55   S    
Cu4   O41   S    
C42   C93   A    
C64   C77   A    
C59   H12   S    
C62   C77   A    
C58   O64   A    
C28   C69   S    
Cu7   O13   S    
C74   C83   A    
C52   O57   S    
C43   C94   A    
C65   H63   S    
Cu5   O63   S    
C16   H59   S    
C111  H15   S    
Cu10  O3    S    
C38   C76   S    
C53   C99   A    
Cu1   O45   S    
C66   C79   A    
C20   C92   S    
C43   C61   A    
C24   C36   S    
C5    H28   S    
C105  C106  T    
Cu4   O40   S    
C17   C26   T    
C8    O53   S    
Cu3   O37   S    
C74   H8    S    
C43   O48   S    
Cu5   Cu7   S    
C57   H1    S    
C34   C79   S    
C7    H35   S    
C41   O46   S    
Cu6   O11   S    
C101  C109  T    
Cu3   Cu4   S    
C4    H24   S    
C15   H58   S    
C48   C96   A    
C58   O7    A    
C111  O46   S    
C31   C83   S    
C87   O30   A    
C112  H18   S    
C32   O13   A    
C9    H39   S    
C70   C81   A    
C112  H16   S    
C45   O50   S    
C32   O10   A    
C8    H37   S    
C53   O58   S    
C46   C95   A    
C41   C94   A    
C92   O39   A    
C10   H43   S    
C15   H57   S    
C14   H52   S    
C4    O49   S    
C88   O36   A    
Cu11  O6    S    
C103  C108  T    
C65   C78   A    
C86   O33   A    
C39   C75   S    
C48   C65   A    
C40   O44   S    
C46   O51   S    
C50   C67   A    
Cu10  O7    S    
C21   C30   T    
C47   O63   A    
C6    H31   S    
C84   O27   A    
C71   C82   A    
Cu2   Cu12  S    
C68   C79   A    
C4    H25   S    
C21   C88   S    
C11   H48   S    
C34   O17   A    
C85   C102  S    
C44   O49   S    
C66   H64   S    
C37   O19   A    
C54   C100  A    
C110  H11   S    
C9    O54   S    
C31   O11   A    
C87   O32   A    
C48   O52   S    
Cu8   Cu10  S    
Cu6   O16   S    
C20   C29   T    
C61   C76   A    
Cu8   O22   S    
Cu12  O30   S    
C50   C98   A    
C56   C74   A    
C49   C66   A    
C7    H32   S    
C11   O57   S    
Cu10  O20   S    
Cu3   O36   S    
Cu7   O15   S    
C41   C59   A    
Cu3   O38   S    
Cu6   O62   S    
C85   O28   A    
C42   C60   A    
Cu9   O2    S    
C33   O14   A    
C1    C22   S    
C36   O23   A    
C54   C72   A    
C44   C62   A    
C36   O45   A    
Cu1   O14   S    
C37   C77   S    
C45   C63   A    
Cu7   O34   S    
C89   O43   A    
C63   H56   S    
C13   C24   T    
C46   C64   A    
Cu6   O23   S    
C86   O29   A    
C55   C99   A    
C112  H17   S    
C3    H20   S    
C9    H40   S    
Cu3   O39   S    
C99   C108  S    
C84   O31   A    
C3    O48   S    
C71   H5    S    
C80   O5    A    
C42   O47   S    
C35   O18   A    
C18   C27   T    
C40   C93   A    
C34   O15   A    
C10   H42   S    
C4    H22   S    
Cu11  O24   S    
C13   C87   S    
C3    H19   S    
C14   H54   S    
C54   O59   S    
C38   O22   A    
C72   H6    S    
C19   C28   T    
C85   O35   A    
C68   H3    S    
C37   O21   A    
C6    H30   S    
Cu5   O12   S    
C110  O44   S    
C26   C47   S    
C12   H51   S    
C97   C106  S    
C60   H23   S    
C47   O34   A    
C94   C103  S    
C67   C81   A    
C55   O60   S    
Cu2   O31   S    
Cu2   O35   S    
C80   O3    A    
C67   H2    S    
C33   O16   A    
Cu9   O19   S    
C38   O25   A    
C93   C101  S    
C8    H36   S    
C73   C82   A    
C31   O9    A    
C32   C82   S    
C95   C104  S    
C111  H13   S    
C12   H50   S    
C14   O59   S    
Cu12  O28   S    
C25   O56   A    
C70   H4    S    
C62   H45   S    
Cu12  O29   S    
Cu1   O9    S    
C40   C57   A    
Cu9   O8    S    
C39   O26   A    
Cu4   O42   S    
C1    O62   A    
C18   C89   S    
C90   O38   A    
C51   O55   S    
C10   O55   S    
Cu8   O64   S    
Cu2   O32   S    
C30   C91   S    
C50   O54   S    
C27   C58   S    
C22   C102  T    
C69   O2    A    
C49   O53   S    
C16   O61   S    
C16   H60   S    
C3    H21   S    
C7    H33   S    
Cu7   O56   S    
C112  O47   S    
Cu1   O1    S    
C91   O4    A    
C7    O52   S    
C35   C78   S    
Cu5   O17   S    
Cu8   O5    S    
C5    H27   S    
Cu10  O25   S    
C16   H61   S    
C17   C84   S    
Cu8   O18   S    
Cu9   O26   S    
C57   C75   A    
C9    H41   S    
Cu4   O43   S    
C25   O12   A    
C8    H38   S    
C61   H34   S    
C91   O8    A    
C88   O40   A    
C29   C80   S    
C92   O41   A    
C12   O58   S    
Cu11  O21   S    
C52   C98   A    
C69   O6    A    
C39   O24   A    
C2    C86   S    
C51   C68   A    
C23   C25   S    
Cu2   O33   S    
C64   H62   S    
Cu9   Cu11  S    
C6    H29   S    
C110  H10   S    
C5    O50   S    
C5    H26   S    
C72   C83   A    
C49   C97   A    
Cu1   Cu6   S    
C55   C73   A    
C35   O20   A    
C100  C109  S    
C89   O37   A    
C15   O60   S    
C11   H46   S    
C10   H44   S    
C56   O61   S    
C2    C23   T    
C19   C90   S    
C56   C100  A    
C14   H53   S    
C90   O42   A    
C110  H9    S    
C6    O51   S    
C60   C75   A    
Cu11  O4    S    
C45   C96   A    
C33   C81   S    
C59   C76   A    
C63   C78   A    
C104  C107  T    
C44   C95   A    
Cu5   O10   S    
C111  H14   S    
C1    O1    A    
C12   H49   S    
C98   C107  S    
Cu12  O27   S    
C53   C71   A    
