data_mof_unit_pretest_584.cif
_audit_creation_date              2012-12-11T14:06:49-0500
_audit_creation_method            fapswitch 2.2
_symmetry_space_group_name_H-M    P1
_symmetry_Int_Tables_number       1
_space_group_crystal_system       triclinic
_cell_length_a                    6.926894
_cell_length_b                    17.291242
_cell_length_c                    24.104869
_cell_angle_alpha                 104.512666
_cell_angle_beta                  90.371485
_cell_angle_gamma                 89.966345
_cell_volume                      2794.96825579

loop_
_atom_site_label
_atom_site_type_symbol
_atom_type_description
_atom_site_fract_x
_atom_site_fract_y
_atom_site_fract_z
_atom_type_partial_charge
O1    O     O_R   0.494290 0.391990 0.999150 -0.535444
O2    O     O_R   0.827170 0.534410 0.082350 -0.541457
O3    O     O_R   0.994360 0.608010 0.000850 -0.535239
C1    C     C_R   0.658376 0.549902 0.106162 0.727962
O4    O     O_R   0.824210 0.388010 0.004470 -0.546310
O5    O     O_R   0.991370 0.460560 0.922410 -0.540927
C2    C     C_R   0.654545 0.354878 0.001476 0.774461
O6    O     O_R   0.497270 0.539440 0.077590 -0.541788
O7    O     O_3   0.659770 0.523970 0.973170 -0.372483
V1    V     V_3+5 0.935840 0.495550 0.004980 1.417447
O8    O     O_R   0.320910 0.465590 0.917650 -0.543570
C3    C     C_R   0.151427 0.450423 0.893878 0.706264
O9    O     O_R   0.323870 0.611990 0.995530 -0.546037
C4    C     C_R   0.154382 0.645119 0.998527 0.776977
V2    V     V_3+5 0.435470 0.504450 0.995020 1.415338
O10   O     O_3   0.161670 0.476030 0.026830 -0.371488
C5    C     C_2   0.142751 0.730266 0.998110 -0.337428
H1    H     H_    0.277136 0.761101 0.994745 0.150479
C6    C     C_2   0.972804 0.769779 0.002030 -0.336298
H2    H     H_    0.838420 0.738944 0.005396 0.150904
C7    C     C_R   0.995390 0.261514 0.626507 0.588121
N1    N     N_R   0.098016 0.330435 0.648238 -0.557935
C8    C     C_R   0.185148 0.369787 0.612244 0.586425
C9    C     C_R   0.170809 0.340076 0.552238 -0.039320
C10   C     C_R   0.064970 0.269723 0.529326 -0.019459
C11   C     C_R   0.976221 0.230188 0.566828 -0.043632
C12   C     C_R   0.259373 0.379466 0.514927 -0.210534
C13   C     C_R   0.244028 0.350139 0.455309 0.198839
C14   C     C_R   0.137342 0.279293 0.431588 -0.014907
C15   C     C_R   0.047990 0.238904 0.469029 -0.121642
C16   C     C_R   0.941678 0.167811 0.446426 -0.025003
C17   C     C_R   0.852215 0.128825 0.484828 0.209137
C18   C     C_R   0.870503 0.160237 0.544140 -0.200874
C19   C     C_R   0.117208 0.247073 0.371711 0.598016
N2    N     N_R   0.017727 0.177401 0.350532 -0.582512
C20   C     C_R   0.929736 0.138030 0.386152 0.607685
O11   O     O_2   0.913404 0.222807 0.662505 -0.518998
O12   O     O_2   0.283560 0.438002 0.634319 -0.517937
H3    H     H_    0.341852 0.433612 0.531794 0.165033
O13   O     O_2   0.195777 0.284774 0.334627 -0.487710
O14   O     O_2   0.832281 0.069976 0.362964 -0.476113
H4    H     H_    0.800780 0.129126 0.572397 0.179168
C21   C     C_R   0.162323 0.102772 0.258463 0.222757
C22   C     C_R   0.147756 0.072469 0.198899 -0.153029
H5    H     H_    0.270054 0.041072 0.175906 0.151484
C23   C     C_R   0.976588 0.081199 0.169259 -0.120662
C24   C     C_R   0.819476 0.121180 0.200466 -0.181106
H6    H     H_    0.686061 0.129148 0.178884 0.142093
C25   C     C_R   0.834652 0.153163 0.259743 -0.082531
H7    H     H_    0.713662 0.185165 0.282888 0.141010
C26   C     C_R   0.005377 0.144541 0.289236 0.320431
C27   C     C_R   0.293106 0.369887 0.737507 -0.075292
H8    H     H_    0.423326 0.352494 0.712923 0.131390
C28   C     C_R   0.306363 0.399125 0.797161 -0.194852
H9    H     H_    0.447514 0.403891 0.817299 0.129001
C29   C     C_R   0.139061 0.420809 0.830346 -0.058527
C30   C     C_R   0.958649 0.413244 0.802172 -0.194995
H10   H     H_    0.826809 0.429643 0.826132 0.132206
C31   C     C_R   0.945821 0.384492 0.742589 -0.080112
H11   H     H_    0.805500 0.379440 0.721920 0.127783
C32   C     C_R   0.112640 0.362109 0.709703 0.368816
C33   C     C_R   0.492589 0.873345 0.613197 0.574189
N3    N     N_R   0.505428 0.822726 0.648750 -0.563327
C34   C     C_R   0.536673 0.742455 0.626948 0.577770
C35   C     C_R   0.556868 0.710310 0.567405 -0.028990
C36   C     C_R   0.545614 0.761717 0.530480 -0.015676
C37   C     C_R   0.512905 0.843931 0.553415 -0.022884
C38   C     C_R   0.588546 0.628263 0.543962 -0.135732
C39   C     C_R   0.608878 0.597793 0.484779 -0.162843
C40   C     C_R   0.598272 0.648554 0.447478 -0.024291
C41   C     C_R   0.567124 0.730857 0.470488 -0.017093
C42   C     C_R   0.557202 0.782380 0.433637 -0.036540
C43   C     C_R   0.524668 0.864340 0.457033 -0.135794
C44   C     C_R   0.502474 0.894703 0.516140 -0.161415
C45   C     C_R   0.616201 0.619054 0.387596 0.568928
N4    N     N_R   0.604850 0.669860 0.352114 -0.569611
C46   C     C_R   0.578570 0.750433 0.374158 0.592847
O15   O     O_2   0.462385 0.952040 0.635605 -0.514932
O16   O     O_2   0.547723 0.693784 0.662708 -0.509423
H12   H     H_    0.597660 0.587246 0.571257 0.178167
H13   H     H_    0.633138 0.534324 0.468397 0.157320
O17   O     O_2   0.642459 0.540142 0.365047 -0.512755
O18   O     O_2   0.571914 0.799479 0.338593 -0.492264
H14   H     H_    0.515407 0.905296 0.429705 0.190060
H15   H     H_    0.477366 0.958138 0.532521 0.162739
C47   C     C_R   0.450460 0.635919 0.254971 0.406044
C48   C     C_R   0.468073 0.607609 0.195415 -0.181058
H16   H     H_    0.340305 0.607050 0.169151 0.148869
C49   C     C_R   0.645841 0.580236 0.169760 -0.145508
C50   C     C_R   0.807966 0.581814 0.205452 -0.175768
H17   H     H_    0.946879 0.560956 0.187340 0.156224
C51   C     C_R   0.792228 0.610014 0.265129 -0.082496
H18   H     H_    0.918443 0.610538 0.291868 0.170044
C52   C     C_R   0.615237 0.638000 0.290575 0.268154
C53   C     C_R   0.657390 0.861019 0.744646 -0.089946
H19   H     H_    0.795839 0.841870 0.725411 0.116397
C54   C     C_R   0.645787 0.892246 0.804019 -0.191767
H20   H     H_    0.776854 0.896034 0.829293 0.130205
C55   C     C_R   0.467605 0.917586 0.830382 -0.057797
C56   C     C_R   0.301439 0.911006 0.795435 -0.195251
H21   H     H_    0.161975 0.929781 0.814063 0.130772
C57   C     C_R   0.313702 0.880159 0.735844 -0.080493
H22   H     H_    0.184459 0.875653 0.709715 0.119493
C58   C     C_R   0.491750 0.854716 0.710075 0.383031
C59   C     C_2   0.642858 0.269706 0.001897 -0.339262
H23   H     H_    0.777381 0.238804 0.005266 0.150189
C60   C     C_2   0.472652 0.230256 0.997978 -0.339268
H24   H     H_    0.338127 0.261158 0.994613 0.150619
O19   O     O_R   0.618210 0.960470 0.922400 -0.541169
O20   O     O_R   0.291310 0.111960 0.995450 -0.545801
O21   O     O_R   0.124210 0.039530 0.077580 -0.541630
C61   C     C_R   0.460970 0.145092 0.998423 0.775112
O22   O     O_R   0.288310 0.965490 0.917650 -0.543227
O23   O     O_R   0.121180 0.892010 0.999220 -0.535860
C62   C     C_R   0.456876 0.949558 0.893871 0.704440
O24   O     O_R   0.621230 0.107990 0.000760 -0.535929
O25   O     O_3   0.455770 0.976060 0.026840 -0.370470
V3    V     V_3+5 0.179680 0.004440 0.995020 1.414516
O26   O     O_R   0.791670 0.888040 0.004570 -0.545616
C63   C     C_R   0.961163 0.854915 0.001582 0.774875
O27   O     O_R   0.794680 0.034510 0.082370 -0.540103
C64   C     C_R   0.964153 0.050084 0.106003 0.718926
V4    V     V_3+5 0.680070 0.995560 0.005010 1.420308
O28   O     O_3   0.953840 0.023940 0.973160 -0.372494
O29   O     O_3   0.270036 0.660549 0.276254 -0.644130
H25   H     H_    0.271070 0.669774 0.318444 0.296194
N5    N     N_3   0.339317 0.392789 0.419439 -0.565205
H26   H     H_    0.287234 0.451405 0.429531 0.242505
H27   H     H_    0.486836 0.394840 0.429174 0.233423
N6    N     N_3   0.741985 0.057124 0.464324 -0.590904
H28   H     H_    0.803533 0.012381 0.480944 0.235297
H29   H     H_    0.601908 0.067519 0.480394 0.221072
N7    N     N_3   0.336165 0.089150 0.287044 -0.635850
H30   H     H_    0.395145 0.144378 0.308010 0.247714
H31   H     H_    0.300257 0.058929 0.318080 0.261055

loop_
_geom_bond_atom_site_label_1
_geom_bond_atom_site_label_2
_ccdc_geom_bond_type
C38   H12   S    
C48   H16   S    
O24   V4    S    
C53   H19   S    
C43   C44   A    
N6    H29   S    
N2    C20   A    
C9    C12   A    
C1    O6    A    
O20   V3    S    
C17   N6    S    
C54   H20   S    
C50   H17   S    
V4    O28   S    
C24   C25   A    
C22   H5    S    
C59   C60   D    
C42   C46   A    
C33   C37   A    
O21   V3    S    
C19   O13   S    
C18   H4    S    
C12   C13   A    
C13   C14   A    
C27   C32   A    
C55   C62   S    
C15   C16   A    
C30   C31   A    
C46   O18   S    
V2    O10   S    
C29   C30   A    
C19   N2    A    
C60   C61   S    
C21   N7    S    
C51   H18   S    
C47   C52   A    
N4    C52   S    
C23   C24   A    
O8    V2    S    
C55   C56   A    
C22   C23   A    
C38   C39   A    
C25   C26   A    
C60   H24   S    
C2    C59   S    
C40   C41   A    
O1    V2    S    
O7    V1    S    
C43   H14   S    
C13   N5    S    
C36   C37   A    
C31   H11   S    
O9    C4    A    
O21   C64   A    
C4    C5    S    
C20   O14   S    
C39   C40   A    
C56   C57   A    
C54   C55   A    
C7    C11   A    
C27   C28   A    
N1    C8    A    
C28   C29   A    
C31   C32   A    
C24   H6    S    
N4    C46   A    
C12   H3    S    
O4    C2    A    
C47   C48   A    
O19   V4    S    
C10   C11   A    
C14   C19   A    
N3    C34   A    
O2    C1    A    
C45   N4    A    
N5    H27   S    
C14   C15   A    
C11   C18   A    
C50   C51   A    
C36   C41   A    
C8    C9    A    
C35   C38   A    
C33   N3    A    
C51   C52   A    
C5    H1    S    
C37   C44   A    
V3    O28   S    
C9    C10   A    
C57   C58   A    
O27   C64   A    
O23   V3    S    
O3    C4    A    
C6    C63   S    
C35   C36   A    
O6    V2    S    
C48   C49   A    
C21   C22   A    
N2    C26   S    
N7    H30   S    
C34   O16   S    
C5    C6    D    
N5    H26   S    
O2    V1    S    
C61   O24   A    
C27   H8    S    
C1    C49   S    
C10   C15   A    
C53   C58   A    
C28   H9    S    
O1    C2    A    
C33   O15   S    
C16   C17   A    
C42   C43   A    
O5    V1    S    
O26   C63   A    
C53   C54   A    
C45   O17   S    
O26   V4    S    
C8    O12   S    
C59   H23   S    
C34   C35   A    
C6    H2    S    
O9    V2    S    
N6    H28   S    
O25   V4    S    
C41   C42   A    
O3    V1    S    
V1    O10   S    
O25   V3    S    
C17   C18   A    
N1    C32   S    
O5    C3    A    
C21   C26   A    
C30   H10   S    
O29   H25   S    
C56   H21   S    
C3    C29   S    
N3    C58   S    
C44   H15   S    
O7    V2    S    
C57   H22   S    
O20   C61   A    
O27   V4    S    
C39   H13   S    
O19   C62   A    
O22   V3    S    
O4    V1    S    
C7    O11   S    
C25   H7    S    
C40   C45   A    
N7    H31   S    
C16   C20   A    
C23   C64   S    
O22   C62   A    
C49   C50   A    
C7    N1    A    
O23   C63   A    
O8    C3    A    
C47   O29   S    
