data_mof_unit_pretest_1483.cif
_audit_creation_date              2012-12-10T19:01:24-0500
_audit_creation_method            fapswitch 2.2
_symmetry_space_group_name_H-M    P1
_symmetry_Int_Tables_number       1
_space_group_crystal_system       triclinic
_cell_length_a                    9.554845
_cell_length_b                    10.838678
_cell_length_c                    15.533114
_cell_angle_alpha                 89.821696
_cell_angle_beta                  74.182897
_cell_angle_gamma                 90.527652
_cell_volume                      1547.63815239

loop_
_atom_site_label
_atom_site_type_symbol
_atom_type_description
_atom_site_fract_x
_atom_site_fract_y
_atom_site_fract_z
_atom_type_partial_charge
C1    C     C_R   0.998387 0.262438 0.502155 0.800829
C2    C     C_R   0.229115 0.429564 0.047872 0.167280
C3    C     C_R   0.328983 0.470798 0.094586 0.093024
C4    C     C_R   0.918042 0.499945 0.672017 0.797355
C5    C     C_R   0.081082 0.414212 0.092764 -0.218119
C6    C     C_R   0.030349 0.440376 0.183676 -0.203145
C7    C     C_R   0.273820 0.500546 0.185350 -0.248074
C8    C     C_R   0.114009 0.065395 0.520088 0.125898
C9    C     C_R   0.992471 0.129526 0.511926 -0.099208
C10   C     C_R   0.863503 0.063239 0.516517 -0.216975
C11   C     C_R   0.864586 0.934534 0.515949 -0.213626
C12   C     C_R   0.675696 0.482994 0.908521 0.092347
C13   C     C_R   0.994652 0.871102 0.510726 -0.099969
C14   C     C_R   0.115313 0.938358 0.519524 0.132778
C15   C     C_3   0.270548 0.936145 0.465256 -0.490506
C16   C     C_R   0.999599 0.737814 0.501592 0.803053
C17   C     C_3   0.268875 0.075948 0.466333 -0.450353
C18   C     C_R   0.607892 0.530508 0.424395 0.252518
C19   C     C_R   0.541974 0.456707 0.571435 -0.080505
C20   C     C_R   0.393294 0.457022 0.571529 -0.090328
C21   C     C_R   0.460621 0.530413 0.424269 0.265906
C22   C     C_3   0.479966 0.650541 0.375201 -0.517178
C23   C     C_R   0.777404 0.513368 0.956940 0.167959
C24   C     C_3   0.638812 0.649575 0.374720 -0.496049
C25   C     C_R   0.081845 0.497499 0.328031 0.797775
C26   C     C_R   0.872743 0.500625 0.770177 -0.048487
C27   C     C_R   0.127271 0.482636 0.230500 -0.049931
C28   C     C_R   0.924611 0.533359 0.912176 -0.213634
C29   C     C_R   0.972337 0.525804 0.819391 -0.199224
C30   C     C_R   0.726218 0.479201 0.814718 -0.249031
C31   C     C_R   0.526675 0.461712 0.955134 0.068006
C32   C     C_R   0.479892 0.481619 0.049159 0.068222
C33   C     C_R   0.585833 0.509279 0.094892 -0.223221
C34   C     C_R   0.731377 0.524526 0.049472 -0.242139
C35   C     C_R   0.423336 0.419633 0.911242 -0.221796
C36   C     C_R   0.277880 0.403178 0.957093 -0.241675
Cu1   Cu    Cu3+1 0.140670 0.499980 0.500000 0.940627
Cu2   Cu    Cu3+1 0.859330 0.500020 0.500000 0.938864
H1    H     H_    0.808244 0.546871 0.087238 0.146952
H2    H     H_    0.464434 0.643095 0.307306 0.184719
H3    H     H_    0.342485 0.538691 0.222919 0.138506
H4    H     H_    0.417994 0.724699 0.416708 0.214415
H5    H     H_    0.714066 0.638118 0.306734 0.192516
H6    H     H_    0.668622 0.725014 0.414917 0.213586
H7    H     H_    0.916479 0.424834 0.217599 0.151729
H8    H     H_    0.202743 0.370163 0.920906 0.146693
H9    H     H_    0.002584 0.556744 0.948887 0.144695
H10   H     H_    0.086166 0.542868 0.786152 0.152979
H11   H     H_    0.652864 0.463274 0.774254 0.141643
H12   H     H_    0.004964 0.380005 0.057772 0.142303
H13   H     H_    0.561109 0.516919 0.166503 0.137672
H14   H     H_    0.451520 0.394908 0.841601 0.134346
H15   H     H_    0.765693 0.885586 0.515025 0.162043
H16   H     H_    0.764219 0.110086 0.515716 0.165634
H17   H     H_    0.342606 0.897316 0.503687 0.196959
H18   H     H_    0.283666 0.897489 0.397307 0.198591
H19   H     H_    0.339310 0.116889 0.505370 0.197276
H20   H     H_    0.281324 0.117942 0.399195 0.202718
H21   H     H_    0.570445 0.422644 0.629807 0.134637
H22   H     H_    0.311680 0.423799 0.629967 0.137992
N1    N     N_R   0.648210 0.500930 0.499430 -0.183730
N2    N     N_R   0.352300 0.500890 0.499430 -0.183761
O1    O     O_R   0.118810 0.319640 0.500000 -0.578161
O2    O     O_R   0.881230 0.319680 0.499990 -0.585168
O3    O     O_R   0.055580 0.499970 0.629840 -0.591086
O4    O     O_R   0.818000 0.500010 0.629830 -0.590690
O5    O     O_R   0.118770 0.680320 0.500010 -0.575150
O6    O     O_R   0.881190 0.680360 0.500000 -0.583071
O7    O     O_R   0.182000 0.499990 0.370170 -0.583412
O8    O     O_R   0.944420 0.500030 0.370160 -0.583645

loop_
_geom_bond_atom_site_label_1
_geom_bond_atom_site_label_2
_ccdc_geom_bond_type
Cu1   N2    S    
C4    C26   S    
Cu2   O8    S    
C18   N1    A    
C36   H8    S    
Cu1   Cu2   S    
C16   O6    A    
C6    H7    S    
Cu1   O7    S    
C25   C27   S    
C18   C21   A    
C9    C10   A    
C3    C7    A    
C8    C17   S    
C11   H15   S    
C6    C27   A    
C17   H20   S    
C23   C34   A    
C22   H2    S    
C15   H18   S    
Cu2   N1    S    
C33   C34   A    
C1    C9    S    
C3    C32   A    
C28   H9    S    
C16   O5    A    
C13   C14   A    
C32   C33   A    
C4    O4    A    
C11   C13   A    
C12   C23   A    
C21   N2    A    
C22   H4    S    
C35   C36   A    
C19   N1    A    
C18   C24   S    
Cu1   O5    S    
C22   C24   S    
Cu1   O3    S    
C28   C29   A    
Cu1   O1    S    
C30   H11   S    
Cu2   O6    S    
C2    C3    A    
Cu2   O2    S    
C7    H3    S    
C12   C31   A    
C20   N2    A    
C5    C6    A    
C10   H16   S    
C31   C35   A    
C5    H12   S    
C2    C5    A    
C25   O7    A    
C10   C11   A    
C29   H10   S    
C34   H1    S    
C1    O2    A    
C1    O1    A    
C7    C27   A    
C24   H6    S    
C26   C29   A    
C4    O3    A    
C13   C16   S    
C2    C36   A    
C35   H14   S    
C15   C17   S    
C24   H5    S    
Cu2   O4    S    
C14   C15   S    
C8    C14   A    
C25   O8    A    
C19   H21   S    
C20   H22   S    
C21   C22   S    
C12   C30   A    
C31   C32   A    
C23   C28   A    
C33   H13   S    
C19   C20   A    
C17   H19   S    
C8    C9    A    
C26   C30   A    
C15   H17   S    
