data_mof_unit_pretest_420.cif
_audit_creation_date              2012-12-11T15:48:03-0500
_audit_creation_method            fapswitch 2.2
_symmetry_space_group_name_H-M    P1
_symmetry_Int_Tables_number       1
_space_group_crystal_system       triclinic
_cell_length_a                    6.931834
_cell_length_b                    17.597142
_cell_length_c                    19.444242
_cell_angle_alpha                 108.498255
_cell_angle_beta                  89.581992
_cell_angle_gamma                 90.554857
_cell_volume                      2249.14600058

loop_
_atom_site_label
_atom_site_type_symbol
_atom_type_description
_atom_site_fract_x
_atom_site_fract_y
_atom_site_fract_z
_atom_type_partial_charge
O1    O     O_R   0.494330 0.415710 0.413720 -0.541271
O2    O     O_R   0.819360 0.430070 0.560210 -0.543273
O3    O     O_R   0.994320 0.584290 0.586280 -0.540789
C1    C     C_R   0.650084 0.414498 0.581482 0.712902
O4    O     O_R   0.823740 0.406290 0.412670 -0.543765
O5    O     O_R   0.998730 0.560340 0.437690 -0.539279
C2    C     C_R   0.654754 0.383111 0.384679 0.685612
O6    O     O_R   0.489920 0.439660 0.562310 -0.539088
O7    O     O_3   0.662330 0.550570 0.508380 -0.369789
V1    V     V_3+5 0.935370 0.490620 0.498440 1.398671
O8    O     O_R   0.328720 0.569930 0.439790 -0.541878
C3    C     C_R   0.160681 0.585180 0.418234 0.711880
O9    O     O_R   0.324340 0.593710 0.587330 -0.544032
C4    C     C_R   0.155194 0.616884 0.615317 0.684735
V2    V     V_3+5 0.435940 0.509380 0.501560 1.398857
O10   O     O_3   0.159110 0.449430 0.491620 -0.369547
C5    C     C_R   0.312290 0.723680 0.718693 -0.157146
C6    C     C_R   0.301044 0.787465 0.783653 -0.151129
H1    H     H_    0.433879 0.815537 0.808563 0.118624
C7    C     C_R   0.121226 0.814646 0.815867 -0.046536
C8    C     C_R   0.952982 0.776252 0.781233 -0.157176
H2    H     H_    0.812074 0.795454 0.804228 0.116473
C9    C     C_R   0.964227 0.712472 0.716279 -0.151114
H3    H     H_    0.831380 0.684407 0.691376 0.118728
C10   C     C_R   0.144037 0.685288 0.684062 -0.046640
C11   C     C_R   0.308207 0.634560 0.321734 -0.220845
C12   C     C_R   0.153211 0.634703 0.369022 -0.083719
C13   C     C_R   0.990015 0.681526 0.368335 -0.219009
C14   C     C_R   0.981843 0.728360 0.321790 0.089157
C15   C     C_R   0.136679 0.726936 0.273855 0.053293
C16   C     C_R   0.299868 0.679466 0.273551 0.090246
C17   C     C_R   0.821576 0.776706 0.322325 -0.189338
C18   C     C_R   0.813388 0.822407 0.275152 -0.182773
C19   C     C_R   0.965024 0.820462 0.226387 0.090246
C20   C     C_R   0.128216 0.772994 0.226084 0.053288
C21   C     C_R   0.283053 0.771570 0.178150 0.089163
C22   C     C_R   0.443319 0.723224 0.177614 -0.189335
C23   C     C_R   0.451505 0.677522 0.224787 -0.182771
C24   C     C_R   0.956681 0.865364 0.178202 -0.220851
C25   C     C_R   0.111676 0.865222 0.130915 -0.083681
C26   C     C_R   0.274879 0.818405 0.131604 -0.219012
H4    H     H_    0.433889 0.598252 0.321456 0.124088
H5    H     H_    0.701683 0.778790 0.358940 0.134579
H6    H     H_    0.687502 0.858885 0.276470 0.135673
H7    H     H_    0.830994 0.901670 0.178477 0.124086
H8    H     H_    0.394610 0.817600 0.095188 0.127912
H9    H     H_    0.577390 0.641043 0.223468 0.135673
C27   C     C_R   0.467437 0.185642 0.867531 -0.219619
C28   C     C_R   0.623490 0.135856 0.870056 -0.084809
C29   C     C_R   0.784217 0.132836 0.824636 -0.220231
C30   C     C_R   0.787977 0.177577 0.776234 0.089929
C31   C     C_R   0.630980 0.227415 0.774273 0.053649
C32   C     C_R   0.470875 0.231864 0.820513 0.088071
C33   C     C_R   0.945316 0.172936 0.729293 -0.185718
C34   C     C_R   0.948316 0.217906 0.681446 -0.184709
C35   C     C_R   0.794027 0.268334 0.679665 0.088070
C36   C     C_R   0.633928 0.272789 0.725908 0.053655
C37   C     C_R   0.476929 0.322625 0.723944 0.089935
C38   C     C_R   0.319592 0.327267 0.770887 -0.185713
C39   C     C_R   0.316589 0.282295 0.818733 -0.184694
C40   C     C_R   0.797447 0.314537 0.632633 -0.219629
C41   C     C_R   0.641389 0.364316 0.630097 -0.084859
C42   C     C_R   0.480677 0.367354 0.675529 -0.220234
H10   H     H_    0.343217 0.188796 0.902513 0.129435
H11   H     H_    0.066777 0.134828 0.729848 0.134008
H12   H     H_    0.921656 0.311366 0.597642 0.129442
H13   H     H_    0.360350 0.405827 0.674351 0.125287
H14   H     H_    0.192700 0.286552 0.854036 0.134758
C43   C     C_R   0.811549 0.276235 0.281635 -0.156186
H15   H     H_    0.952220 0.295363 0.304906 0.116686
C44   C     C_R   0.800462 0.212451 0.216672 -0.151938
H16   H     H_    0.933122 0.184298 0.192033 0.118664
C45   C     C_R   0.620992 0.185362 0.184124 -0.046432
C46   C     C_R   0.452909 0.223844 0.218421 -0.156175
H17   H     H_    0.312247 0.204711 0.195144 0.116670
C47   C     C_R   0.463997 0.287635 0.283388 -0.152008
H18   H     H_    0.331348 0.315793 0.308033 0.118537
C48   C     C_R   0.643475 0.314719 0.315934 -0.046614
O11   O     O_R   0.774940 0.060470 0.937800 -0.539128
O12   O     O_R   0.440880 0.093730 0.087350 -0.543684
O13   O     O_R   0.266130 0.939630 0.062280 -0.539276
C49   C     C_R   0.609806 0.116964 0.115381 0.685891
O14   O     O_R   0.445480 0.069960 0.939820 -0.543249
O15   O     O_R   0.270770 0.915690 0.913690 -0.540806
C50   C     C_R   0.614769 0.085617 0.918619 0.712918
O16   O     O_R   0.770300 0.084410 0.086380 -0.541487
O17   O     O_3   0.602600 0.949510 0.991670 -0.369828
V3    V     V_3+5 0.329470 0.009370 0.001550 1.398728
O18   O     O_R   0.940760 0.906160 0.912560 -0.544316
C51   C     C_R   0.109970 0.883045 0.884613 0.684486
O19   O     O_R   0.936150 0.929930 0.060100 -0.541948
C52   C     C_R   0.104190 0.914742 0.081700 0.711843
V4    V     V_3+5 0.828930 0.990450 0.998310 1.398953
O20   O     O_3   0.105670 0.050490 0.008320 -0.369466
H19   H     H_    0.453190 0.704470 0.695693 0.116481
H20   H     H_    0.563212 0.721141 0.140999 0.134578
H21   H     H_    0.904536 0.094355 0.825804 0.125269
H22   H     H_    0.072201 0.213645 0.646140 0.134740
H23   H     H_    0.198129 0.365374 0.770330 0.134019
H24   H     H_    0.870283 0.682333 0.404752 0.127957

loop_
_geom_bond_atom_site_label_1
_geom_bond_atom_site_label_2
_ccdc_geom_bond_type
C34   C35   A    
C25   C26   A    
V4    O20   S    
C38   H23   S    
C45   C46   A    
C20   C21   A    
C1    O6    A    
C43   C48   A    
C33   H11   S    
C11   C12   A    
C14   C15   A    
C46   C47   A    
C15   C20   A    
C13   C14   A    
C22   C23   A    
C47   C48   A    
O11   V4    S    
C14   C17   A    
O5    C3    A    
C15   C16   A    
C27   H10   S    
V2    O10   S    
C1    C41   S    
C35   C36   A    
C19   C20   A    
C43   C44   A    
O13   C52   A    
O8    V2    S    
C40   H12   S    
C26   H8    S    
C5    H19   S    
O7    V1    S    
C24   H7    S    
C13   H24   S    
O14   V3    S    
C38   C39   A    
O9    C4    A    
C21   C26   A    
C43   H15   S    
O15   C51   A    
O4    V1    S    
C32   C39   A    
C18   C19   A    
V3    O20   S    
C27   C32   A    
C42   H13   S    
C46   H17   S    
C3    C12   S    
C30   C31   A    
C28   C50   S    
C47   H18   S    
O12   C49   A    
O19   C52   A    
O4    C2    A    
C6    H1    S    
C29   C30   A    
C37   C38   A    
C49   O16   A    
C7    C51   S    
C19   C24   A    
C22   H20   S    
O2    C1    A    
C41   C42   A    
O16   V4    S    
O19   V4    S    
C9    H3    S    
C5    C6    A    
C25   C52   S    
C23   H9    S    
O3    C4    A    
C2    C48   S    
O1    V2    S    
C27   C28   A    
O14   C50   A    
O6    V2    S    
C8    C9    A    
O2    V1    S    
C45   C49   S    
O11   C50   A    
C31   C32   A    
C11   H4    S    
C44   C45   A    
C37   C42   A    
C33   C34   A    
C21   C22   A    
C29   H21   S    
O1    C2    A    
C18   H6    S    
O15   V3    S    
O5    V1    S    
O8    C3    A    
C16   C23   A    
C30   C33   A    
C5    C10   A    
C17   C18   A    
O9    V2    S    
O7    V2    S    
C44   H16   S    
O12   V3    S    
O3    V1    S    
V1    O10   S    
C36   C37   A    
O17   V4    S    
C34   H22   S    
C17   H5    S    
C6    C7    A    
C9    C10   A    
C4    C10   S    
O18   V4    S    
C40   C41   A    
O13   V3    S    
C31   C36   A    
C24   C25   A    
C11   C16   A    
C7    C8    A    
C39   H14   S    
O17   V3    S    
C28   C29   A    
C12   C13   A    
C35   C40   A    
O18   C51   A    
C8    H2    S    
