data_mof_unit_pretest_1759.cif
_audit_creation_date              2012-12-10T16:56:43-0500
_audit_creation_method            fapswitch 2.2
_symmetry_space_group_name_H-M    P1
_symmetry_Int_Tables_number       1
_space_group_crystal_system       triclinic
_cell_length_a                    21.729585
_cell_length_b                    21.729127
_cell_length_c                    22.299732
_cell_angle_alpha                 119.466204
_cell_angle_beta                  119.459863
_cell_angle_gamma                 90.068157
_cell_volume                      7560.24361956

loop_
_atom_site_label
_atom_site_type_symbol
_atom_type_description
_atom_site_fract_x
_atom_site_fract_y
_atom_site_fract_z
_atom_type_partial_charge
C1    C     C_R   0.498326 0.117112 0.496783 0.770476
C2    C     C_R   0.501673 0.882888 0.503216 0.770509
C3    C     C_1   0.875938 0.374541 0.250356 -0.131411
C4    C     C_1   0.124067 0.625459 0.749644 -0.131391
C5    C     C_3   0.709864 0.207566 0.917330 -0.202856
C6    C     C_3   0.290156 0.792437 0.082670 -0.202687
C7    C     C_3   0.712686 0.295860 0.048339 -0.510695
C8    C     C_3   0.286235 0.701355 0.951622 -0.510869
C9    C     C_3   0.792675 0.290155 0.082683 -0.155219
C10   C     C_3   0.207348 0.709854 0.917317 -0.155177
C11   C     C_3   0.787010 0.206893 0.048086 0.466344
C12   C     C_3   0.215975 0.793589 0.951949 0.466407
C13   C     C_3   0.738781 0.158361 0.950821 0.507520
C14   C     C_3   0.264204 0.842140 0.049213 0.506820
C15   C     C_1   0.838564 0.336552 0.174959 0.137506
C16   C     C_1   0.161448 0.663450 0.825041 0.137481
C17   C     C_1   0.663533 0.161793 0.825030 0.169460
C18   C     C_1   0.336475 0.838210 0.174969 0.169457
C19   C     C_1   0.625513 0.124409 0.749633 -0.100051
C20   C     C_1   0.374488 0.875592 0.250366 -0.099968
C21   C     C_R   0.361440 0.123015 0.375191 -0.242542
C22   C     C_R   0.638551 0.876992 0.624824 -0.241772
C23   C     C_R   0.580151 0.079872 0.659893 0.788176
C24   C     C_R   0.419849 0.920128 0.340107 0.787955
C25   C     C_R   0.294486 0.129300 0.324700 0.695613
C26   C     C_R   0.705504 0.870710 0.675320 0.696216
C27   C     C_R   0.291912 0.197314 0.334306 -0.193933
C28   C     C_R   0.708083 0.802694 0.665709 -0.193306
C29   C     C_R   0.356764 0.258680 0.392315 -0.269873
C30   C     C_R   0.643235 0.741324 0.607690 -0.269744
C31   C     C_R   0.425942 0.252896 0.442029 0.097948
C32   C     C_R   0.574057 0.747105 0.557974 0.097908
C33   C     C_R   0.427455 0.185235 0.436584 0.009250
C34   C     C_R   0.572541 0.814768 0.563422 0.009182
C35   C     C_R   0.495240 0.181524 0.491896 -0.051985
C36   C     C_R   0.504758 0.818476 0.508103 -0.051739
C37   C     C_R   0.560713 0.242183 0.547588 -0.179071
C38   C     C_R   0.439288 0.757814 0.452406 -0.179159
C39   C     C_R   0.559878 0.307258 0.550521 -0.194848
C40   C     C_R   0.440124 0.692739 0.449472 -0.194865
C41   C     C_R   0.493482 0.313084 0.498055 -0.065131
C42   C     C_R   0.506519 0.686915 0.501943 -0.064982
C43   C     C_R   0.758476 0.513647 0.453356 -0.177585
C44   C     C_R   0.241495 0.486283 0.546585 -0.177182
C45   C     C_R   0.740145 0.463477 0.605838 -0.163751
C46   C     C_R   0.259917 0.536631 0.394265 -0.163827
C47   C     C_R   0.818615 0.503342 0.508194 -0.091412
C48   C     C_R   0.181381 0.496652 0.491796 -0.091550
C49   C     C_R   0.883077 0.501595 0.503326 0.779716
C50   C     C_R   0.116920 0.498402 0.496667 0.779911
C51   C     C_R   0.920381 0.419853 0.340097 0.796563
C52   C     C_R   0.079619 0.580146 0.659903 0.796865
C53   C     C_R   0.619229 0.497751 0.500332 0.780216
C54   C     C_R   0.380772 0.502243 0.499668 0.780241
C55   C     C_R   0.497362 0.380786 0.499610 0.777447
C56   C     C_R   0.502639 0.619214 0.500390 0.777481
C57   C     C_R   0.746572 0.483429 0.557076 0.102542
C58   C     C_R   0.253457 0.516622 0.442971 0.102615
C59   C     C_R   0.876027 0.485389 0.623362 -0.148143
C60   C     C_R   0.124023 0.514725 0.376717 -0.148328
C61   C     C_R   0.869074 0.468376 0.672851 -0.091230
C62   C     C_R   0.131009 0.531801 0.327287 -0.090347
C63   C     C_R   0.800965 0.456125 0.663047 -0.123597
C64   C     C_R   0.199125 0.544049 0.337104 -0.124145
C65   C     C_R   0.693370 0.509911 0.450384 -0.188095
C66   C     C_R   0.306603 0.490017 0.549561 -0.187885
C67   C     C_R   0.686933 0.495422 0.501888 -0.097163
C68   C     C_R   0.313069 0.504569 0.498112 -0.097145
C69   C     C_R   0.814322 0.490414 0.562654 0.091693
C70   C     C_R   0.185703 0.509639 0.437385 0.091344
C71   C     C_3   0.664161 0.247948 0.951327 0.451261
C72   C     C_3   0.334734 0.749266 0.048634 0.451174
C73   C     C_3   0.778516 0.268374 0.952249 0.259432
C74   C     C_3   0.219631 0.733952 0.047756 0.260063
C75   C     C_3   0.827217 0.316990 0.049568 0.332755
C76   C     C_3   0.170932 0.685332 0.950436 0.332822
Cu1   Cu    Cu3+1 0.438180 0.999990 0.500010 1.031700
Cu2   Cu    Cu3+1 0.561820 0.000010 0.499990 1.032291
Cu3   Cu    Cu3+1 0.000200 0.561800 0.499990 1.007497
Cu4   Cu    Cu3+1 0.999800 0.438200 0.500010 1.007378
Cu5   Cu    Cu3+1 0.541330 0.541310 0.582630 0.990325
Cu6   Cu    Cu3+1 0.458670 0.458690 0.417370 0.989500
H1    H     H_    0.795343 0.441404 0.700374 0.146163
H2    H     H_    0.204773 0.558817 0.299822 0.146054
H3    H     H_    0.843893 0.201607 0.071247 0.116907
H4    H     H_    0.159904 0.800891 0.928817 0.117144
H5    H     H_    0.612636 0.239541 0.590006 0.157448
H6    H     H_    0.387367 0.760454 0.409984 0.157114
H7    H     H_    0.360934 0.068812 0.364680 0.176630
H8    H     H_    0.639053 0.931195 0.635337 0.176547
H9    H     H_    0.239554 0.202507 0.296256 0.184616
H10   H     H_    0.760441 0.797503 0.703761 0.184825
H11   H     H_    0.351594 0.310553 0.398315 0.181517
H12   H     H_    0.648408 0.689450 0.601686 0.181545
H13   H     H_    0.688182 0.452346 0.599702 0.144510
H14   H     H_    0.311885 0.547753 0.400408 0.144514
H15   H     H_    0.611653 0.353108 0.593388 0.145991
H16   H     H_    0.388351 0.646887 0.406602 0.145871
H17   H     H_    0.647963 0.519302 0.408264 0.161002
H18   H     H_    0.351989 0.480577 0.591641 0.161043
H19   H     H_    0.761540 0.523554 0.411624 0.160494
H20   H     H_    0.238409 0.476327 0.588276 0.160639
H21   H     H_    0.916618 0.464136 0.718573 0.155005
H22   H     H_    0.083485 0.536091 0.281599 0.156083
H23   H     H_    0.715259 0.355093 0.072284 0.138121
H24   H     H_    0.281540 0.641734 0.927649 0.138115
H25   H     H_    0.758938 0.305058 0.930183 0.075743
H26   H     H_    0.237062 0.696920 0.069801 0.075622
H27   H     H_    0.830103 0.376149 0.072522 0.086350
H28   H     H_    0.165904 0.625824 0.927460 0.085951
O1    O     O_R   0.447780 0.090160 0.499990 -0.585057
O2    O     O_R   0.552220 0.909840 0.500010 -0.585044
O3    O     O_R   0.555310 0.465120 0.430190 -0.570169
O4    O     O_R   0.444690 0.534880 0.569810 -0.569910
O5    O     O_R   0.534910 0.444720 0.569790 -0.590646
O6    O     O_R   0.465090 0.555280 0.430210 -0.590779
O7    O     O_R   0.465120 0.374940 0.430230 -0.573915
O8    O     O_R   0.534880 0.625060 0.569770 -0.573652
O9    O     O_R   0.552200 0.090180 0.499980 -0.572546
O10   O     O_R   0.447800 0.909820 0.500020 -0.572601
O11   O     O_R   0.508070 0.060270 0.620570 -0.558530
O12   O     O_R   0.491930 0.939730 0.379430 -0.557873
O13   O     O_R   0.612490 0.060290 0.620560 -0.571591
O14   O     O_R   0.387510 0.939710 0.379440 -0.571789
O15   O     O_R   0.910000 0.552200 0.500000 -0.576378
O16   O     O_R   0.090000 0.447800 0.500000 -0.576401
O17   O     O_R   0.909970 0.447830 0.500020 -0.582185
O18   O     O_R   0.090030 0.552170 0.499980 -0.582065
O19   O     O_R   0.939920 0.491910 0.379430 -0.592451
O20   O     O_R   0.060080 0.508090 0.620570 -0.592681
O21   O     O_R   0.939890 0.387530 0.379440 -0.551877
O22   O     O_R   0.060110 0.612470 0.620560 -0.551905
O23   O     O_R   0.625100 0.534890 0.569750 -0.594199
O24   O     O_R   0.374900 0.465110 0.430250 -0.594363
H29   H     H_    0.773639 0.131323 0.928978 0.117905
H30   H     H_    0.230126 0.871219 0.071084 0.117586
F1    F     F_    0.756845 0.181179 0.076978 -0.562608
F2    F     F_    0.247875 0.817281 0.923052 -0.562908
F3    F     F_    0.600817 0.196753 0.920723 -0.543321
F4    F     F_    0.399627 0.798282 0.079234 -0.543553
H31   H     H_    0.686303 0.277189 0.071084 0.295971
H32   H     H_    0.313917 0.718316 0.928875 0.295791
F5    F     F_    0.231641 0.069233 0.266704 -0.622977
F6    F     F_    0.768343 0.930782 0.733329 -0.623454
H33   H     H_    0.930375 0.495496 0.634198 0.149863
H34   H     H_    0.069668 0.504614 0.365864 0.150240
H35   H     H_    0.645363 0.285065 0.929711 0.068330
H36   H     H_    0.351380 0.711823 0.070222 0.068046
F7    F     F_    0.820657 0.235554 0.922353 -0.569438
F8    F     F_    0.178360 0.769311 0.077683 -0.568097
F9    F     F_    0.899598 0.314361 0.080112 -0.589323
F10   F     F_    0.099421 0.690495 0.919924 -0.588380
F11   F     F_    0.679533 0.101621 0.919289 -0.522336
F12   F     F_    0.325228 0.896905 0.080741 -0.522693

loop_
_geom_bond_atom_site_label_1
_geom_bond_atom_site_label_2
_ccdc_geom_bond_type
C66   C68   A    
Cu3   O18   S    
Cu6   O24   S    
C5    C71   S    
C27   C29   A    
C73   C75   S    
C44   C66   A    
Cu1   O10   S    
Cu5   Cu6   S    
C51   O19   A    
C23   O11   A    
C21   H7    S    
Cu1   Cu2   S    
C6    C72   S    
C45   C57   A    
C14   H30   S    
C53   C67   S    
C74   C76   S    
C4    C52   S    
C61   H21   S    
C48   C50   S    
C7    C71   S    
C26   F6    S    
C73   H25   S    
C54   C68   S    
C76   F10   S    
C54   O24   A    
C63   H1    S    
C24   O14   A    
C18   C20   T    
C60   C62   A    
C1    O9    A    
C66   H18   S    
Cu1   O1    S    
C41   C55   S    
C62   C64   A    
C42   C56   S    
C10   C76   S    
C47   C69   A    
C20   C24   S    
C75   F9    S    
C65   C67   A    
Cu2   O2    S    
Cu5   O4    S    
C7    H23   S    
C27   H9    S    
C50   O16   A    
C30   C32   A    
C5    C13   S    
C40   C42   A    
Cu3   O15   S    
Cu4   O21   S    
C14   F12   S    
C29   C31   A    
C13   H29   S    
C25   F5    S    
C60   H34   S    
C57   C67   A    
C49   O17   A    
C24   O12   A    
C29   H11   S    
C53   O3    A    
C6    C74   S    
C62   H22   S    
C22   H8    S    
C22   C34   A    
C6    C18   S    
C59   C61   A    
Cu4   O20   S    
C52   O22   A    
C53   O23   A    
C65   H17   S    
C47   C49   S    
C3    C51   S    
C58   C70   A    
C71   F3    S    
C39   H15   S    
C72   H36   S    
Cu5   O8    S    
C45   C63   A    
C38   H6    S    
C32   C34   A    
C4    C16   T    
C19   C23   S    
C43   H19   S    
C6    C14   S    
C11   F1    S    
C60   C70   A    
C43   C65   A    
C40   H16   S    
C2    O2    A    
Cu5   O5    S    
C31   C33   A    
C56   O6    A    
C46   H14   S    
C28   H10   S    
C5    C17   S    
Cu2   O13   S    
C9    C11   S    
C13   F11   S    
C71   H35   S    
C10   C12   S    
C59   C69   A    
C59   H33   S    
C8    C10   S    
C12   C14   S    
C12   F2    S    
C50   O18   A    
C17   C19   T    
C45   H13   S    
C7    H31   S    
C3    C15   T    
C1    C35   S    
C55   O7    A    
C2    C36   S    
C7    C9    S    
C21   C25   A    
C2    O10   A    
C31   C41   A    
C73   F7    S    
C8    C72   S    
C56   O8    A    
C37   H5    S    
C61   C63   A    
Cu6   O3    S    
C48   C70   A    
C8    H24   S    
C23   O13   A    
Cu5   O23   S    
Cu4   O17   S    
C12   H4    S    
C25   C27   A    
C49   O15   A    
C26   C28   A    
C76   H28   S    
C64   H2    S    
C52   O20   A    
Cu4   O16   S    
C36   C38   A    
Cu2   O9    S    
C9    C15   S    
Cu6   O6    S    
C35   C37   A    
C30   H12   S    
Cu1   O14   S    
C10   C16   S    
C1    O1    A    
C38   C40   A    
C11   C13   S    
C58   C68   A    
C55   O5    A    
C11   H3    S    
Cu3   O22   S    
C54   O4    A    
C28   C30   A    
C33   C35   A    
C75   H27   S    
C34   C36   A    
C5    C73   S    
Cu2   O12   S    
Cu1   O11   S    
C74   H26   S    
Cu3   Cu4   S    
C72   F4    S    
C21   C33   A    
C39   C41   A    
C37   C39   A    
C22   C26   A    
C51   O21   A    
C46   C64   A    
C32   C42   A    
C74   F8    S    
C8    H32   S    
C9    C75   S    
Cu6   O7    S    
C57   C69   A    
C43   C47   A    
Cu3   O19   S    
C46   C58   A    
C44   C48   A    
C44   H20   S    
