data_mof_unit_pretest_190.cif
_audit_creation_date              2012-12-10T17:08:09-0500
_audit_creation_method            fapswitch 2.2
_symmetry_space_group_name_H-M    P1
_symmetry_Int_Tables_number       1
_space_group_crystal_system       triclinic
_cell_length_a                    23.424409
_cell_length_b                    11.116544
_cell_length_c                    9.92756
_cell_angle_alpha                 111.545467
_cell_angle_beta                  99.142176
_cell_angle_gamma                 90.406892
_cell_volume                      2367.90864585

loop_
_atom_site_label
_atom_site_type_symbol
_atom_type_description
_atom_site_fract_x
_atom_site_fract_y
_atom_site_fract_z
_atom_type_partial_charge
C1    C     C_R   0.495912 0.254506 0.440882 0.885637
C2    C     C_R   0.503751 0.745457 0.559088 0.944132
C3    C     C_R   0.246467 0.390824 0.546784 0.598684
C4    C     C_R   0.755709 0.371357 0.520536 0.620645
C5    C     C_R   0.305633 0.405072 0.550717 0.522096
C6    C     C_R   0.697011 0.386662 0.522820 0.476876
C7    C     C_R   0.328167 0.493403 0.498632 -0.398680
C8    C     C_R   0.671428 0.492205 0.498654 -0.402135
C9    C     C_R   0.290597 0.569843 0.441928 0.117576
C10   C     C_R   0.705397 0.584202 0.471556 0.224501
C11   C     C_R   0.229516 0.545309 0.424399 0.221381
C12   C     C_R   0.763130 0.557885 0.448885 0.285330
C13   C     C_R   0.208284 0.459542 0.484230 -0.056870
C14   C     C_R   0.789013 0.455757 0.483655 -0.085145
C15   C     C_2   0.492931 0.115735 0.408878 -0.296316
C16   C     C_2   0.506016 0.884216 0.591010 -0.318059
C17   C     C_2   0.501538 0.069547 0.517354 0.552984
C18   C     C_2   0.496969 0.930302 0.482500 0.564016
C19   C     C_2   0.504765 0.508215 0.081112 0.648842
C20   C     C_2   0.495693 0.490214 0.918232 0.653061
C21   C     C_R   0.391038 0.499889 0.500115 0.969773
C22   C     C_R   0.608982 0.501479 0.500332 1.000130
C23   C     C_R   0.886789 0.537277 0.607065 0.737596
C24   C     C_R   0.112988 0.345079 0.394163 0.779934
C25   C     C_R   0.871805 0.343764 0.391391 0.785002
C26   C     C_R   0.126900 0.544810 0.602042 0.735125
C27   C     C_R   0.932045 0.337642 0.394273 -0.227103
C28   C     C_R   0.067561 0.541736 0.610145 -0.219099
C29   C     C_R   0.969765 0.437888 0.503786 -0.146957
C30   C     C_R   0.030172 0.439061 0.503469 -0.144489
C31   C     C_R   0.947122 0.537953 0.612564 -0.224557
C32   C     C_R   0.052988 0.338557 0.395390 -0.220977
C33   C     C_R   0.955473 0.236354 0.289118 0.610525
C34   C     C_R   0.044539 0.639278 0.720095 0.615817
C35   C     C_R   0.015139 0.236480 0.290108 0.616718
C36   C     C_R   0.985170 0.637070 0.721711 0.614489
Cu1   Cu    Cu3+1 0.509980 0.521810 0.644910 1.218306
Cu2   Cu    Cu3+1 0.490020 0.478190 0.355090 1.194554
H1    H     H_    0.516075 0.949503 0.705513 0.188774
H2    H     H_    0.482989 0.050472 0.294337 0.193181
N1    N     N_R   0.850607 0.444390 0.494448 -0.432590
N2    N     N_R   0.147912 0.449278 0.493259 -0.431133
N3    N     N_2   0.475010 0.445410 0.137370 -0.086103
N4    N     N_2   0.524990 0.554590 0.862630 -0.094956
O1    O     O_R   0.505330 0.332340 0.577400 -0.475519
O2    O     O_R   0.494670 0.667660 0.422600 -0.471001
O3    O     O_R   0.488470 0.295500 0.332650 -0.563285
O4    O     O_R   0.511530 0.704500 0.667350 -0.556862
O5    O     O_R   0.426310 0.518390 0.622390 -0.527556
O6    O     O_R   0.573690 0.481610 0.377610 -0.561322
O7    O     O_R   0.409450 0.481550 0.377650 -0.545172
O8    O     O_R   0.590550 0.518450 0.622350 -0.509311
O9    O     O_2   0.864058 0.629439 0.712179 -0.369705
O10   O     O_2   0.136223 0.250527 0.292768 -0.374574
O11   O     O_2   0.834549 0.252210 0.284880 -0.371879
O12   O     O_2   0.163533 0.642782 0.701044 -0.387167
F1    F     F_    0.920915 0.136801 0.183515 -0.499159
F2    F     F_    0.079085 0.738453 0.826350 -0.492128
S1    S     S_3+6 0.580934 0.670301 0.967359 0.198924
O13   O     O_2   0.558503 0.777431 0.086332 -0.180181
O14   O     O_2   0.628104 0.607552 0.033863 -0.175996
O15   O     O_3   0.609502 0.736227 0.863479 -0.454251
H3    H     H_    0.641750 0.797457 0.931220 0.391749
S2    S     S_3+6 0.419885 0.327433 0.032275 0.185960
O16   O     O_2   0.372955 0.386141 0.959386 -0.186311
O17   O     O_2   0.443841 0.219270 0.917722 -0.168738
O18   O     O_3   0.390337 0.264389 0.137547 -0.495202
H4    H     H_    0.358790 0.201262 0.069425 0.385285
F3    F     F_    0.035284 0.137116 0.185303 -0.490667
F4    F     F_    0.965263 0.734469 0.829189 -0.489101
F5    F     F_    0.225779 0.309021 0.603895 -0.540852
F6    F     F_    0.780519 0.273670 0.554207 -0.532052
F7    F     F_    0.341277 0.331977 0.605692 -0.518786
F8    F     F_    0.665070 0.299594 0.552087 -0.574140
S3    S     S_3+6 0.321547 0.702163 0.409058 0.143321
O19   O     O_2   0.280666 0.807296 0.419038 -0.087815
O20   O     O_2   0.374682 0.761038 0.522920 -0.290029
O21   O     O_3   0.340975 0.648667 0.241942 -0.417312
H5    H     H_    0.320494 0.561830 0.188417 0.353235
S4    S     S_3+6 0.678783 0.738414 0.490235 0.141460
O22   O     O_2   0.727742 0.841853 0.543922 -0.146462
O23   O     O_2   0.646757 0.733466 0.344762 -0.122511
O24   O     O_3   0.633639 0.779286 0.612811 -0.553263
H6    H     H_    0.631225 0.874114 0.641481 0.379031
S5    S     S_3+6 0.179140 0.616362 0.325615 0.148050
O25   O     O_2   0.122832 0.534915 0.262169 -0.265943
O26   O     O_2   0.166862 0.747335 0.428960 -0.116909
O27   O     O_3   0.206029 0.633468 0.185832 -0.396058
H7    H     H_    0.209065 0.543755 0.117186 0.357343
S6    S     S_3+6 0.802746 0.645325 0.370440 0.142337
O28   O     O_2   0.843675 0.559638 0.282349 -0.261660
O29   O     O_2   0.762291 0.692843 0.270306 -0.146225
O30   O     O_3   0.841362 0.772645 0.505937 -0.417668
H8    H     H_    0.864162 0.812829 0.455522 0.403043
F9    F     F_    0.483373 0.849529 0.338459 -0.583433
F10   F     F_    0.514952 0.150245 0.661451 -0.594598
F11   F     F_    0.454492 0.402097 0.820139 -0.542819
F12   F     F_    0.546311 0.595120 0.178773 -0.566631

loop_
_geom_bond_atom_site_label_1
_geom_bond_atom_site_label_2
_ccdc_geom_bond_type
O30   H8    S    
C27   C29   A    
C24   N2    A    
C19   C20   S    
C21   O7    A    
C21   O5    A    
S5    O25   D    
C27   C33   A    
O15   H3    S    
C12   S6    S    
N4    S1    S    
C24   O10   S    
Cu1   O5    S    
C15   C17   D    
C20   F11   S    
C36   F4    S    
C8    C22   S    
C23   O9    S    
C1    C15   S    
C29   C30   A    
C2    C16   S    
C3    C13   A    
C22   O6    A    
C28   C34   A    
S1    O13   D    
C5    F7    S    
C18   F9    S    
S4    O24   S    
C13   N2    S    
C20   N4    D    
C19   F12   S    
C19   N3    D    
N3    S2    S    
C6    F8    S    
S5    O26   D    
S1    O14   D    
S2    O18   S    
O18   H4    S    
C32   C35   A    
C4    C6    A    
C25   N1    A    
C5    C7    A    
Cu1   O8    S    
C10   S4    S    
O21   H5    S    
C1    O3    A    
C6    C8    A    
Cu2   O7    S    
C2    O4    A    
C7    C21   S    
C2    O2    A    
S2    O17   D    
C3    F5    S    
S3    O19   D    
C24   C32   A    
Cu1   Cu2   S    
C9    C11   A    
S6    O29   D    
O24   H6    S    
C17   C18   S    
C17   F10   S    
Cu1   O4    S    
S3    O20   D    
Cu2   O3    S    
C10   C12   A    
C14   N1    S    
S4    O23   D    
C12   C14   A    
Cu1   O1    S    
C4    F6    S    
C26   N2    A    
S6    O30   S    
C22   O8    A    
S5    O27   S    
C7    C9    A    
S1    O15   S    
C33   F1    S    
C16   C18   D    
C25   O11   S    
S4    O22   D    
C3    C5    A    
C26   O12   S    
Cu2   O6    S    
C25   C27   A    
C26   C28   A    
C23   N1    A    
S2    O16   D    
Cu1   N4    S    
C28   C30   A    
Cu2   N3    S    
C29   C31   A    
C30   C32   A    
C11   C13   A    
C1    O1    A    
S6    O28   D    
C11   S5    S    
C33   C35   A    
C34   C36   A    
C4    C14   A    
S3    O21   S    
C15   H2    S    
Cu2   O2    S    
C16   H1    S    
O27   H7    S    
C35   F3    S    
C8    C10   A    
C34   F2    S    
C31   C36   A    
C9    S3    S    
C23   C31   A    
