data_mof_unit_pretest_1701.cif
_audit_creation_date              2012-12-11T16:21:01-0500
_audit_creation_method            fapswitch 2.2
_symmetry_space_group_name_H-M    P1
_symmetry_Int_Tables_number       1
_space_group_crystal_system       triclinic
_cell_length_a                    8.511157
_cell_length_b                    16.382607
_cell_length_c                    17.446205
_cell_angle_alpha                 108.958804
_cell_angle_beta                  83.788529
_cell_angle_gamma                 96.863073
_cell_volume                      2277.9192003

loop_
_atom_site_label
_atom_site_type_symbol
_atom_type_description
_atom_site_fract_x
_atom_site_fract_y
_atom_site_fract_z
_atom_type_partial_charge
Ba1   Ba    Ba6+2 0.638770 0.457640 0.528600 1.994531
Ba2   Ba    Ba6+2 0.171410 0.542370 0.471460 2.023609
C1    C     C_3   0.830435 0.191590 0.750722 1.406727
C2    C     C_3   0.815119 0.247777 0.697249 1.036917
C3    C     C_3   0.930195 0.257100 0.269836 0.835558
C4    C     C_3   0.885988 0.170368 0.205716 1.220191
C5    C     C_3   0.481351 0.785384 0.317054 0.897685
C6    C     C_3   0.463251 0.859658 0.282785 1.023394
C7    C     C_3   0.008872 0.741407 0.293796 0.676001
C8    C     C_3   0.001953 0.791912 0.234268 1.618873
C9    C     C_2   0.697600 0.752416 0.511382 0.151224
C10   C     C_R   0.100270 0.247343 0.470267 0.216912
C11   C     C_2   0.542592 0.867994 0.604768 0.300164
C12   C     C_3   0.295549 0.227951 0.701558 0.578801
C13   C     C_2   0.552469 0.781186 0.566006 -0.108951
C14   C     C_2   0.814318 0.810172 0.495903 -0.041162
C15   C     C_3   0.776981 0.903532 0.516795 -0.179805
C16   C     C_3   0.680951 0.932630 0.598163 0.310983
C17   C     C_2   0.911107 0.970967 0.510852 0.639307
C18   C     C_2   0.892044 0.028012 0.472210 0.354768
C19   C     C_R   0.168573 0.075712 0.432411 0.339639
C20   C     C_R   0.017450 0.098600 0.467731 -0.190773
C21   C     C_R   0.284985 0.137413 0.416891 -0.090985
C22   C     C_R   0.251921 0.223647 0.435155 -0.031841
C23   C     C_3   0.324578 0.149482 0.725573 1.697637
C24   C     C_R   0.983970 0.186268 0.488678 -0.004730
C25   C     C_R   0.076447 0.458520 0.713122 0.158821
C26   C     C_R   0.950553 0.511095 0.746542 0.006855
C27   C     C_R   0.903880 0.529066 0.829695 -0.220336
C28   C     C_R   0.984243 0.497430 0.879057 -0.088872
C29   C     C_R   0.119899 0.452595 0.846159 0.574175
C30   C     C_R   0.167509 0.434164 0.763141 -0.025377
C31   C     C_R   0.920235 0.492438 0.161300 0.242255
C32   C     C_R   0.867978 0.497265 0.242931 -0.094881
C33   C     C_R   0.644167 0.574861 0.236116 -0.080790
C34   C     C_3   0.346169 0.671179 0.745178 0.830386
C35   C     C_R   0.695927 0.570355 0.155785 0.477794
C36   C     C_R   0.834391 0.530204 0.118654 -0.053921
C37   C     C_1   0.884379 0.522144 0.034311 0.303319
C38   C     C_1   0.929227 0.512320 0.963768 0.199748
C39   C     C_R   0.732217 0.539950 0.279169 0.352070
C40   C     C_3   0.404105 0.703439 0.831822 1.428325
C41   C     C_3   0.447161 0.342846 0.266148 0.631494
C42   C     C_3   0.409922 0.316222 0.176265 0.772704
C43   C     C_3   0.853717 0.726938 0.683587 1.145791
C44   C     C_3   0.887316 0.824306 0.725927 0.887943
H1    H     H_    0.377509 0.397544 0.301232 0.057878
H2    H     H_    0.472874 0.258278 0.140642 0.088215
H3    H     H_    0.865092 0.859512 0.684071 -0.013576
H4    H     H_    0.977304 0.158486 0.153677 0.032322
H5    H     H_    0.454004 0.832582 0.215741 0.025480
H6    H     H_    0.886399 0.718686 0.310877 -0.227163
H7    H     H_    0.399114 0.117046 0.388070 0.161972
H8    H     H_    0.177269 0.247009 0.729772 -0.006445
H9    H     H_    0.805740 0.568245 0.856022 0.171612
O1    O     O_2   0.563480 0.287900 0.421550 -0.392030
O2    O     O_3   0.881459 0.680918 0.734834 -0.605667
O3    O     O_3   0.411480 0.296290 0.732312 -0.553509
O4    O     O_2   0.246830 0.712160 0.578490 -0.418839
O5    O     O_3   0.465730 0.603870 0.559050 -0.433106
O6    O     O_3   0.005180 0.659120 0.430820 -0.438120
O7    O     O_3   0.401968 0.733423 0.706391 -0.543946
O8    O     O_3   0.867570 0.455870 0.400730 -0.383992
O9    O     O_3   0.410870 0.615450 0.384100 -0.442450
O10   O     O_2   0.322872 0.543528 0.235798 -0.393558
O11   O     O_3   0.395472 0.708903 0.270114 -0.579483
O12   O     O_3   0.344560 0.396140 0.441010 -0.499186
O13   O     O_3   0.942720 0.544140 0.599330 -0.441365
O14   O     O_2   0.129060 0.458130 0.306750 -0.514252
O15   O     O_3   0.939173 0.322496 0.232548 -0.645094
O16   O     O_2   0.138498 0.811661 0.512147 -0.360836
O17   O     O_3   0.088278 0.795318 0.362039 -0.560956
O18   O     O_3   0.805120 0.340890 0.569250 -0.419203
O19   O     O_2   0.653595 0.191267 0.487358 -0.431841
O20   O     O_3   0.413058 0.271191 0.294375 -0.607614
O21   O     O_3   0.730478 0.197337 0.629445 -0.570002
O22   O     O_2   0.681260 0.541920 0.693290 -0.380169
O23   O     O_3   0.399420 0.384560 0.615960 -0.456975
O24   O     O_2   0.491561 0.459837 0.764606 -0.391477
P1    P     P_3+3 0.397200 0.301470 0.401420 1.126930
P2    P     P_3+3 0.862850 0.568080 0.686620 1.195953
P3    P     P_3+3 0.362707 0.392088 0.719397 1.167444
P4    P     P_3+3 0.413100 0.698540 0.598650 1.185223
P5    P     P_3+3 0.447918 0.612875 0.282419 1.188269
P6    P     P_3+3 0.793181 0.227380 0.542082 1.164310
P7    P     P_3+3 0.946504 0.431609 0.297483 1.077933
P8    P     P_3+3 0.010865 0.770991 0.450513 1.179455
O25   O     O_3   0.731755 0.318444 0.743866 -0.690427
H10   H     H_    0.739924 0.359661 0.712649 0.306400
F1    F     F_    0.358787 0.785899 0.873354 -0.629444
O26   O     O_3   0.343595 0.646156 0.874945 -0.692881
H11   H     H_    0.231371 0.657552 0.892869 0.285124
F2    F     F_    0.567894 0.707660 0.827103 -0.627112
O27   O     O_3   0.606847 0.370168 0.272892 -0.737974
H12   H     H_    0.664000 0.322757 0.234155 0.309068
O28   O     O_3   0.460334 0.384495 0.145074 -0.749249
H13   H     H_    0.440377 0.362517 0.086562 0.364836
F3    F     F_    0.249260 0.294923 0.168518 -0.694126
F4    F     F_    0.698558 0.710049 0.667414 -0.774245
F5    F     F_    0.948535 0.704438 0.612100 -0.735417
F6    F     F_    0.682264 0.168621 0.782624 -0.584526
O29   O     O_3   0.787190 0.852427 0.796935 -0.616381
H14   H     H_    0.829937 0.834473 0.839135 0.366983
F7    F     F_    0.044913 0.844150 0.743706 -0.659370
F8    F     F_    0.966224 0.277097 0.674327 -0.824870
O30   O     O_3   0.924415 0.237841 0.814883 -0.726145
H15   H     H_    0.935473 0.197480 0.845424 0.364816
O31   O     O_3   0.077020 0.250529 0.295743 -0.789979
H16   H     H_    0.133894 0.308754 0.310179 0.272929
O32   O     O_3   0.811413 0.269236 0.333038 -0.695766
H17   H     H_    0.860370 0.296010 0.385125 0.296874
F9    F     F_    0.878239 0.103567 0.238722 -0.653956
F10   F     F_    0.740561 0.170549 0.177239 -0.688999
F11   F     F_    0.898844 0.116958 0.704162 -0.657192
F12   F     F_    0.197162 0.087515 0.707735 -0.583394
O33   O     O_3   0.418748 0.809614 0.398214 -0.638561
H18   H     H_    0.457437 0.771402 0.424197 0.281129
O34   O     O_3   0.642570 0.774106 0.313218 -0.795952
H19   H     H_    0.676367 0.753510 0.254560 0.285135
F13   F     F_    0.326569 0.899332 0.317082 -0.610420
O35   O     O_3   0.591802 0.923147 0.300426 -0.633774
H20   H     H_    0.664788 0.913287 0.250536 0.344879
O36   O     O_3   0.091949 0.669097 0.253126 -0.706434
H21   H     H_    0.085893 0.633854 0.289925 0.296160
F14   F     F_    0.913167 0.743141 0.170383 -0.715950
F15   F     F_    0.152157 0.810022 0.201917 -0.608794
O37   O     O_3   0.303064 0.203593 0.616441 -0.716869
H22   H     H_    0.225560 0.236009 0.602622 0.298323
F16   F     F_    0.935201 0.868927 0.273793 -0.678759
O38   O     O_3   0.419467 0.901326 0.660402 -0.554814
H23   H     H_    0.322423 0.861483 0.648589 0.372660
O39   O     O_3   0.714098 0.665659 0.477581 -0.639825
H24   H     H_    0.732848 0.644112 0.522161 0.365237
O40   O     O_3   0.062709 0.330773 0.488194 -0.678096
H25   H     H_    0.083970 0.348452 0.439240 0.273813
F17   F     F_    0.042287 0.979959 0.552076 -0.622473
O41   O     O_3   0.753726 0.018571 0.434327 -0.648032
H26   H     H_    0.769823 0.054735 0.397800 0.366662
O42   O     O_3   0.049507 0.449377 0.119836 -0.617789
H27   H     H_    0.102946 0.428396 0.156240 0.378785
F18   F     F_    0.205665 0.427765 0.894701 -0.619603
F19   F     F_    0.609128 0.602357 0.112984 -0.625077
O43   O     O_3   0.106040 0.424636 0.631062 -0.661353
H28   H     H_    0.145630 0.472528 0.609819 0.303378
F20   F     F_    0.672494 0.536715 0.353202 -0.643266
F21   F     F_    0.458726 0.112982 0.682701 -0.598710
F22   F     F_    0.343016 0.174142 0.808044 -0.603390
O44   O     O_3   0.180477 0.662153 0.750144 -0.854999
H29   H     H_    0.145636 0.720432 0.780298 0.340209
O45   O     O_3   0.406898 0.591495 0.705554 -0.692498
H30   H     H_    0.332486 0.556499 0.665695 0.269176

loop_
_geom_bond_atom_site_label_1
_geom_bond_atom_site_label_2
_ccdc_geom_bond_type
C5    O33   S    
O7    P4    S    
C40   F2    S    
Ba1   O22   S    
C34   C40   S    
C17   C18   D    
C7    O17   S    
C9    O39   S    
C41   O27   S    
O36   H21   S    
C43   C44   S    
O33   H18   S    
C44   O29   S    
C44   H3    S    
C43   O2    S    
C3    O15   S    
C11   C16   S    
O13   P2    S    
C26   C27   A    
C33   C35   A    
Ba1   O1    S    
O4    P4    D    
C40   O26   S    
Ba2   O13   S    
O3    P3    S    
C36   C37   S    
O5    P4    S    
Ba2   O5    S    
C6    O35   S    
C23   F12   S    
O30   H15   S    
Ba1   P2    S    
O43   H28   S    
Ba1   O13   S    
O31   H16   S    
C15   C16   S    
Ba1   Ba2   S    
C32   P7    S    
O34   H19   S    
O9    P5    S    
O6    P8    S    
C15   C17   S    
O32   H17   S    
C42   F3    S    
C22   P1    S    
C3    O32   S    
Ba2   O9    S    
C14   C15   S    
C14   P8    S    
C25   O43   S    
C21   C22   A    
C23   F21   S    
Ba2   O14   S    
O20   P1    S    
Ba2   O6    S    
C1    F6    S    
C26   P2    S    
O41   H26   S    
O19   P6    D    
C10   O40   S    
C19   C20   A    
Ba1   O23   S    
C5    O34   S    
Ba2   P4    S    
O29   H14   S    
C7    H6    S    
C9    C13   S    
C35   C36   A    
C34   O7    S    
Ba1   O8    S    
C34   O44   S    
C21   H7    S    
C1    O30   S    
C41   O20   S    
C12   O3    S    
C35   F19   S    
C5    C6    S    
O44   H29   S    
Ba2   O12   S    
C43   F4    S    
Ba1   O5    S    
O26   H11   S    
Ba2   O4    S    
O39   H24   S    
O10   P5    D    
C13   P4    S    
C27   H9    S    
C17   F17   S    
C44   F7    S    
C43   F5    S    
C12   O37   S    
C10   C24   A    
C40   F1    S    
C18   O41   S    
C29   F18   S    
C41   C42   S    
C4    F10   S    
C32   C39   A    
C27   C28   A    
C42   O28   S    
C33   P5    S    
C9    C14   D    
O23   P3    S    
C29   C30   A    
O22   P2    D    
C28   C29   A    
C11   O38   S    
O28   H13   S    
C31   C32   A    
C28   C38   S    
C23   F22   S    
C4    H4    S    
C6    H5    S    
O18   P6    S    
O35   H20   S    
O16   P8    D    
C7    O36   S    
C12   H8    S    
C18   C20   S    
C19   C21   A    
O8    P7    S    
O2    P2    S    
C1    C2    S    
O15   P7    S    
C37   C38   T    
O17   P8    S    
Ba2   O8    S    
C6    F13   S    
C7    C8    S    
C25   C30   A    
C4    F9    S    
O12   P1    S    
C1    F11   S    
O24   P3    D    
O42   H27   S    
O40   H25   S    
C2    O25   S    
C30   P3    S    
C2    F8    S    
C10   C22   A    
C31   C36   A    
O1    P1    D    
Ba1   O18   S    
C11   C13   D    
O38   H23   S    
C8    F16   S    
C5    O11   S    
C34   O45   S    
C3    C4    S    
C31   O42   S    
C24   P6    S    
Ba1   O12   S    
C12   C23   S    
O27   H12   S    
C33   C39   A    
C2    O21   S    
O11   P5    S    
C42   H2    S    
C39   F20   S    
O25   H10   S    
C20   C24   A    
C25   C26   A    
Ba1   P1    S    
O45   H30   S    
C8    F14   S    
C8    F15   S    
C41   H1    S    
O21   P6    S    
O14   P7    D    
O37   H22   S    
C3    O31   S    
