data_mof_unit_pretest_1245.cif
_audit_creation_date              2012-12-10T20:52:41-0500
_audit_creation_method            fapswitch 2.2
_symmetry_space_group_name_H-M    P1
_symmetry_Int_Tables_number       1
_space_group_crystal_system       triclinic
_cell_length_a                    8.600147
_cell_length_b                    15.873989
_cell_length_c                    15.094121
_cell_angle_alpha                 89.775498
_cell_angle_beta                  98.691772
_cell_angle_gamma                 90.009084
_cell_volume                      2036.94793217

loop_
_atom_site_label
_atom_site_type_symbol
_atom_type_description
_atom_site_fract_x
_atom_site_fract_y
_atom_site_fract_z
_atom_type_partial_charge
C1    C     C_R   0.499797 0.339039 0.500093 0.908078
C2    C     C_R   0.499864 0.660965 0.499831 0.906213
C3    C     C_R   0.501056 0.501281 0.905104 0.022807
C4    C     C_R   0.499953 0.498421 0.095019 0.022961
C5    C     C_R   0.569516 0.568045 0.959853 0.199018
C6    C     C_R   0.432154 0.431452 0.040358 0.198512
C7    C     C_1   0.500404 0.500362 0.807084 0.055177
C8    C     C_1   0.500027 0.499529 0.192964 0.055419
C9    C     C_R   0.200493 0.499956 0.476702 0.969661
C10   C     C_R   0.799507 0.499960 0.523298 0.969219
C11   C     C_2   0.035756 0.499876 0.463937 -0.387557
C12   C     C_2   0.964245 0.499910 0.536064 -0.387459
C13   C     C_R   0.403396 0.955201 0.555301 0.106381
C14   C     C_R   0.567680 0.044867 0.434331 0.106357
C15   C     C_R   0.489565 0.912982 0.496340 0.011948
C16   C     C_R   0.489020 0.087076 0.496848 0.011156
C17   C     C_R   0.572993 0.956210 0.436409 0.107109
C18   C     C_R   0.408003 0.043849 0.557919 0.107572
C19   C     C_1   0.493393 0.823683 0.497824 -0.025329
C20   C     C_1   0.492678 0.176348 0.498722 -0.025080
C21   C     C_1   0.496265 0.250977 0.499845 -0.199129
C22   C     C_1   0.496759 0.749040 0.499005 -0.201584
C23   C     C_R   0.433159 0.433916 0.946487 -0.259497
C24   C     C_R   0.568033 0.565716 0.053669 -0.258785
H1    H     H_    0.973761 0.499827 0.395528 0.182536
H2    H     H_    0.026240 0.499945 0.604473 0.182605
H3    H     H_    0.381288 0.382408 0.905245 0.144602
H4    H     H_    0.619947 0.617213 0.094920 0.144947
N1    N     N_1   0.499960 0.500020 0.270540 -0.094525
N2    N     N_1   0.500040 0.499980 0.729460 -0.094597
O1    O     O_R   0.500000 0.378020 0.573650 -0.613227
O2    O     O_R   0.500000 0.621980 0.426350 -0.612137
O3    O     O_R   0.500070 0.378020 0.426320 -0.612200
O4    O     O_R   0.499930 0.621980 0.573680 -0.611612
O5    O     O_R   0.271720 0.500000 0.556430 -0.611803
O6    O     O_R   0.728280 0.500000 0.443570 -0.611962
O7    O     O_R   0.271790 0.500000 0.409110 -0.622642
O8    O     O_R   0.728210 0.500000 0.590890 -0.622669
Zn1   Zn    Zn3+2 0.499950 0.500000 0.598370 0.964643
Zn2   Zn    Zn3+2 0.500050 0.500000 0.401630 0.964792
C25   C     C_3   0.328251 0.093197 0.625284 -0.385407
C26   C     C_3   0.163447 0.121596 0.583938 -0.877812
H5    H     H_    0.168796 0.163029 0.525033 0.268873
H6    H     H_    0.088414 0.066292 0.562447 0.251403
H7    H     H_    0.108596 0.157355 0.634227 0.251011
H8    H     H_    0.321512 0.056471 0.687125 0.207685
H9    H     H_    0.399176 0.149252 0.649618 0.210372
C27   C     C_3   0.666887 0.906794 0.375732 -0.389667
C28   C     C_3   0.561581 0.877431 0.290863 -0.864031
H10   H     H_    0.468522 0.834461 0.307898 0.269133
H11   H     H_    0.505139 0.932166 0.252807 0.249366
H12   H     H_    0.633362 0.842972 0.247540 0.247214
H13   H     H_    0.766377 0.943651 0.357036 0.207868
H14   H     H_    0.724537 0.851234 0.411716 0.206182
C29   C     C_3   0.307370 0.904747 0.614358 -0.383692
C30   C     C_3   0.408992 0.876063 0.701032 -0.878018
H15   H     H_    0.504138 0.833495 0.686267 0.270480
H16   H     H_    0.462688 0.931030 0.739337 0.250973
H17   H     H_    0.335096 0.841324 0.743213 0.252645
H18   H     H_    0.204986 0.940708 0.630494 0.207095
H19   H     H_    0.253569 0.848706 0.577975 0.206005
C31   C     C_3   0.643997 0.095305 0.365931 -0.385327
C32   C     C_3   0.810844 0.122399 0.404584 -0.875222
H20   H     H_    0.809787 0.162890 0.464299 0.268562
H21   H     H_    0.885935 0.066550 0.424155 0.250382
H22   H     H_    0.862922 0.158795 0.353384 0.251422
H23   H     H_    0.645993 0.059735 0.303108 0.206834
H24   H     H_    0.572993 0.152105 0.343745 0.210795
C33   C     C_3   0.357589 0.356872 0.080377 -0.419897
C34   C     C_3   0.482249 0.295859 0.125901 -0.852317
H25   H     H_    0.555874 0.272481 0.076712 0.256600
H26   H     H_    0.558994 0.326923 0.182087 0.263577
H27   H     H_    0.423951 0.241189 0.153156 0.244132
H28   H     H_    0.282377 0.378817 0.129436 0.207371
H29   H     H_    0.279422 0.322050 0.027466 0.200424
C35   C     C_3   0.645811 0.642157 0.920102 -0.418283
C36   C     C_3   0.522734 0.704322 0.875335 -0.859458
H30   H     H_    0.445723 0.674336 0.818516 0.265187
H31   H     H_    0.449255 0.727543 0.924669 0.258106
H32   H     H_    0.582667 0.758960 0.849180 0.251293
H33   H     H_    0.725366 0.676116 0.973098 0.200708
H34   H     H_    0.719974 0.619856 0.870664 0.207516

loop_
_geom_bond_atom_site_label_1
_geom_bond_atom_site_label_2
_ccdc_geom_bond_type
C6    C33   S    
C29   C30   S    
C32   H21   S    
C1    C21   S    
C25   C26   S    
C3    C23   A    
C17   C27   S    
C4    C8    S    
C1    O3    A    
C36   H30   S    
C27   H14   S    
C13   C18   A    
C8    N1    T    
O7    Zn2   S    
C3    C7    S    
O8    Zn1   S    
C4    C24   A    
C11   H1    S    
C14   C31   S    
C1    O1    A    
C30   H15   S    
C2    O2    A    
O1    Zn1   S    
C28   H11   S    
C2    C22   S    
C25   H8    S    
C34   H25   S    
C23   H3    S    
C2    O4    A    
C32   H22   S    
C7    N2    T    
C29   H18   S    
C14   C17   A    
C26   H6    S    
C36   H31   S    
C27   H13   S    
O3    Zn2   S    
O4    Zn1   S    
O6    Zn2   S    
C19   C22   T    
C35   C36   S    
C4    C6    A    
C18   C25   S    
C35   H34   S    
C12   H2    S    
C26   H7    S    
C15   C19   S    
C31   C32   S    
O5    Zn1   S    
C16   C20   S    
C28   H12   S    
C34   H27   S    
C9    O7    A    
C25   H9    S    
C33   H28   S    
C9    C11   S    
C10   C12   S    
C31   H23   S    
C27   C28   S    
C13   C15   A    
C14   C16   A    
C26   H5    S    
C36   H32   S    
C15   C17   A    
C24   H4    S    
C3    C5    A    
C35   H33   S    
C34   H26   S    
C11   C12   D    
C30   H17   S    
C31   H24   S    
C10   O8    A    
C5    C35   S    
C5    C24   A    
C6    C23   A    
C29   H19   S    
N1    Zn2   S    
C30   H16   S    
N2    Zn1   S    
C33   H29   S    
O2    Zn2   S    
C33   C34   S    
C32   H20   S    
C20   C21   T    
C16   C18   A    
C28   H10   S    
C9    O5    A    
C10   O6    A    
C13   C29   S    
