data_mof_unit_pretest_425.cif
_audit_creation_date              2013-03-05T15:40:42-0500
_audit_creation_method            fapswitch 2.2
_symmetry_space_group_name_H-M    P1
_symmetry_Int_Tables_number       1
_space_group_crystal_system       triclinic
_cell_length_a                    7.832966
_cell_length_b                    8.569177
_cell_length_c                    12.159382
_cell_angle_alpha                 92.466537
_cell_angle_beta                  101.656343
_cell_angle_gamma                 94.042986
_cell_volume                      795.970297429

loop_
_atom_site_label
_atom_site_type_symbol
_atom_site_description
_atom_site_fract_x
_atom_site_fract_y
_atom_site_fract_z
_atom_type_partial_charge
O1    O     O_R   0.893060 0.738880 0.507150 -0.600783
O2    O     O_R   0.172250 0.711130 0.488470 -0.540052
C1    C     C_R   0.044495 0.794650 0.497274 0.933420
O3    O     O_R   0.944700 0.520730 0.667600 -0.625859
O4    O     O_R   0.223890 0.492980 0.648920 -0.536763
C2    C     C_R   0.106683 0.504335 0.710077 0.936244
Zn1   Zn    Zn3+2 0.813580 0.518530 0.512470 1.061532
Zn2   Zn    Zn3+2 0.186420 0.481470 0.487530 1.124160
O5    O     O_R   0.827750 0.288870 0.511530 -0.654833
O6    O     O_R   0.106940 0.261120 0.492850 -0.595771
O7    O     O_R   0.776110 0.507020 0.351080 -0.607220
O8    O     O_R   0.055300 0.479270 0.332400 -0.569688
C3    C     C_R   0.955461 0.205340 0.502631 0.977178
C4    C     C_R   0.891754 0.488340 0.289608 0.848672
C5    C     C_R   0.802011 0.273729 0.007933 -0.152877
H1    H     H_    0.020039 0.291284 0.147869 0.187409
H2    H     H_    0.581111 0.157340 0.820976 0.182471
H3    H     H_    0.856533 0.184657 0.962543 0.151396
C6    C     C_R   0.828033 0.453477 0.170119 -0.075450
C7    C     C_R   0.077927 0.600441 0.897447 -0.246906
C8    C     C_R   0.141058 0.621016 0.012342 -0.192675
C9    C     C_R   0.294001 0.555167 0.061700 0.328756
C10   C     C_R   0.388038 0.471244 0.992575 -0.095216
C11   C     C_R   0.304662 0.424907 0.881206 -0.090142
C12   C     C_R   0.562221 0.432912 0.029024 0.104176
C13   C     C_R   0.632981 0.318771 0.967139 0.065316
C14   C     C_R   0.532574 0.249842 0.866928 -0.291046
C15   C     C_R   0.370235 0.302701 0.823377 0.629115
C16   C     C_R   0.670689 0.510842 0.122894 -0.160024
C17   C     C_R   0.897319 0.337400 0.111522 -0.177880
C18   C     C_R   0.159652 0.503878 0.831426 -0.086045
H4    H     H_    0.630459 0.611497 0.164811 0.171609
H5    H     H_    0.964625 0.659909 0.860128 0.188936
H6    H     H_    0.069059 0.686468 0.063333 0.175595
C19   C     C_2   0.067666 0.958310 0.495700 -0.300342
H7    H     H_    0.195176 0.009594 0.487432 0.202794
C20   C     C_2   0.932381 0.041703 0.504346 -0.344047
H8    H     H_    0.804900 0.990430 0.512672 0.199029
N1    N     N_2   0.434800 0.456690 0.470850 -0.024914
H9    H     H_    0.471364 0.364260 0.426517 0.178870
N2    N     N_2   0.565200 0.543310 0.529150 0.208437
F1    F     F_    0.520963 0.660749 0.590760 -0.540979
N3    N     N_R   0.335249 0.552176 0.181735 0.178502
O9    O     O_R   0.373542 0.421403 0.227534 -0.442726
O10   O     O_R   0.312711 0.672600 0.244655 -0.404292
F2    F     F_    0.273288 0.226429 0.728680 -0.677085

loop_
_geom_bond_atom_site_label_1
_geom_bond_atom_site_label_2
_geom_bond_distance
_ccdc_geom_bond_type
C5    H3    1.083758 S    
C10   C11   1.406332 A    
C20   H8    1.087760 S    
Zn2   N1    2.021236 S    
O4    Zn2   1.921825 S    
N2    F1    1.335362 S    
C3    C20   1.402733 S    
C9    N3    1.431490 S    
C1    C19   1.402832 S    
Zn2   O8    1.955671 S    
Zn1   N2    2.021235 S    
O2    C1    1.289484 A    
C11   C18   1.407240 A    
N1    N2    1.285300 D    
C8    C9    1.395610 A    
Zn1   O7    1.921826 S    
N3    O10   1.301421 A    
C15   F2    1.357062 S    
C13   C14   1.391937 A    
C19   H7    1.087788 S    
O3    Zn1   1.955670 S    
C7    H5    1.083601 S    
Zn2   O6    1.954013 S    
C19   C20   1.337904 D    
O8    C4    1.290752 A    
C2    C18   1.450070 S    
C16   H4    1.080944 S    
C10   C12   1.413223 A    
N3    O9    1.299809 A    
C12   C16   1.390367 A    
O4    C2    1.299059 A    
O7    C4    1.299459 A    
H1    C17   1.082794 S    
H2    C14   1.084107 S    
N1    H9    1.028386 S    
C7    C8    1.383725 A    
C5    C17   1.394633 A    
O3    C2    1.289557 A    
C14   C15   1.390073 A    
Zn1   O5    1.978596 S    
O5    C3    1.289506 A    
C9    C10   1.427955 A    
C5    C13   1.403982 A    
C8    H6    1.083068 S    
C12   C13   1.418359 A    
O1    Zn1   1.954012 S    
C6    C17   1.401065 A    
C4    C6    1.448423 S    
O6    C3    1.277654 A    
O2    Zn2   1.978595 S    
C11   C15   1.418908 A    
O1    C1    1.277661 A    
C7    C18   1.401465 A    
C6    C16   1.383512 A    
