data_mof_unit_pretest_1148.cif
_audit_creation_date              2012-12-10T16:54:55-0500
_audit_creation_method            fapswitch 2.2
_symmetry_space_group_name_H-M    P1
_symmetry_Int_Tables_number       1
_space_group_crystal_system       triclinic
_cell_length_a                    7.841753
_cell_length_b                    8.579802
_cell_length_c                    15.751725
_cell_angle_alpha                 91.952416
_cell_angle_beta                  84.035635
_cell_angle_gamma                 93.624042
_cell_volume                      1051.53833631

loop_
_atom_site_label
_atom_site_type_symbol
_atom_type_description
_atom_site_fract_x
_atom_site_fract_y
_atom_site_fract_z
_atom_type_partial_charge
C1    C     C_R   0.544847 0.794002 0.494391 0.952179
C2    C     C_3   0.344528 0.607560 0.063486 0.044221
C3    C     C_3   0.497480 0.502755 0.083416 0.151021
C4    C     C_3   0.468915 0.327920 0.047561 0.010271
C5    C     C_3   0.453908 0.337133 0.948724 -0.285585
C6    C     C_1   0.503874 0.499357 0.174890 0.050509
C7    C     C_1   0.492094 0.509964 0.825376 -0.015639
C8    C     C_1   0.496404 0.505955 0.750058 -0.166613
C9    C     C_2   0.565434 0.957787 0.492854 -0.406646
C10   C     C_2   0.431720 0.043689 0.482173 -0.196688
C11   C     C_R   0.499286 0.501290 0.661373 0.905488
C12   C     C_R   0.454620 0.205793 0.497471 0.905231
C13   C     C_R   0.500703 0.499061 0.338617 0.887319
C14   C     C_3   0.348303 0.621579 0.961586 0.126584
C15   C     C_3   0.678160 0.569654 0.940621 -0.045360
C16   C     C_3   0.677120 0.572762 0.040965 -0.205941
C17   C     C_1   0.503234 0.498618 0.249983 -0.139782
C18   C     C_3   0.491350 0.511855 0.917575 0.136822
H1    H     H_    0.688136 0.008773 0.510095 0.180876
H2    H     H_    0.013485 0.381394 0.435273 0.178973
H3    H     H_    0.776516 0.495997 0.058172 0.175301
H4    H     H_    0.552862 0.264451 0.914492 0.155788
N1    N     N_2   0.950340 0.457950 0.477370 -0.113569
N2    N     N_2   0.049660 0.542050 0.522630 -0.046277
O1    O     O_R   0.389240 0.738570 0.505550 -0.614448
O2    O     O_R   0.678400 0.711630 0.491050 -0.599461
O3    O     O_R   0.355360 0.513470 0.630110 -0.619985
O4    O     O_R   0.644510 0.486530 0.615610 -0.596773
O5    O     O_R   0.321600 0.288370 0.508950 -0.629420
O6    O     O_R   0.610760 0.261430 0.494450 -0.618877
O7    O     O_R   0.355490 0.513470 0.384390 -0.620538
O8    O     O_R   0.644640 0.486530 0.369890 -0.609811
Zn1   Zn    Zn3+2 0.306930 0.517990 0.509680 0.970018
Zn2   Zn    Zn3+2 0.693070 0.482010 0.490320 0.990370
C19   C     C_1   0.363284 0.763171 0.107641 0.159915
N3    N     N_1   0.376486 0.882931 0.143153 -0.195497
N4    N     N_3   0.180807 0.568428 0.932770 -0.444414
H5    H     H_    0.086173 0.639029 0.961668 0.171337
H6    H     H_    0.182140 0.586140 0.867333 0.223458
N5    N     N_3   0.177930 0.538267 0.102677 -0.452333
H7    H     H_    0.125576 0.449063 0.065058 0.211124
H8    H     H_    0.084910 0.621153 0.111009 0.183349
N6    N     N_3   0.614207 0.233539 0.062595 -0.456327
H9    H     H_    0.582948 0.115341 0.049241 0.189844
H10   H     H_    0.723050 0.258927 0.020542 0.191349
C20   C     C_1   0.273153 0.985574 0.448078 0.241544
N7    N     N_1   0.147272 0.940079 0.420757 -0.191399
N8    N     N_3   0.967539 0.644841 0.580470 -0.299160
H11   H     H_    0.998798 0.617575 0.640885 0.188220
H12   H     H_    0.023432 0.756268 0.567388 0.189027
N9    N     N_3   0.383741 0.784384 0.932755 -0.451592
H13   H     H_    0.275083 0.848441 0.948336 0.193017
H14   H     H_    0.480298 0.844831 0.962993 0.179249
C21   C     C_1   0.803637 0.460148 0.900836 0.092892
N10   N     N_1   0.898213 0.373466 0.867858 -0.175382
C22   C     C_1   0.742179 0.719921 0.901525 0.147926
N11   N     N_1   0.793328 0.836652 0.870730 -0.206599
N12   N     N_3   0.728786 0.725980 0.078891 -0.436729
H15   H     H_    0.861104 0.747384 0.064526 0.181865
H16   H     H_    0.673298 0.817604 0.052702 0.202141
C23   C     C_1   0.295288 0.257892 0.920525 0.210819
N13   N     N_1   0.173408 0.192398 0.898509 -0.174819
C24   C     C_1   0.315529 0.245873 0.094372 0.227719
N14   N     N_1   0.197068 0.181803 0.130833 -0.190104

loop_
_geom_bond_atom_site_label_1
_geom_bond_atom_site_label_2
_ccdc_geom_bond_type
C2    C19   S    
C10   C20   S    
C15   C18   S    
N1    N2    D    
O7    Zn1   S    
N4    H5    S    
C5    H4    S    
C4    N6    S    
C13   C17   S    
C12   O5    A    
C9    C10   D    
C14   C18   S    
C13   O8    A    
C14   N9    S    
H2    N1    S    
C11   O3    A    
N6    H9    S    
N1    Zn2   S    
C15   C22   S    
C7    C18   S    
N8    H12   S    
C2    C3    S    
C3    C4    S    
O4    Zn2   S    
C7    C8    T    
N4    H6    S    
C16   N12   S    
O3    Zn1   S    
C14   N4    S    
C1    O1    A    
N6    H10   S    
C4    C24   S    
C16   H3    S    
C10   C12   S    
C11   O4    A    
C8    C11   S    
N5    H8    S    
N8    H11   S    
C9    H1    S    
N2    Zn1   S    
C1    O2    A    
C2    C14   S    
O2    Zn2   S    
C23   N13   T    
O6    Zn2   S    
C5    C23   S    
N9    H13   S    
N2    N8    S    
C15   C21   S    
C2    N5    S    
C4    C5    S    
C1    C9    S    
C22   N11   T    
C3    C6    S    
C6    C17   T    
C21   N10   T    
N5    H7    S    
C5    C18   S    
C12   O6    A    
N12   H15   S    
C20   N7    T    
N12   H16   S    
C13   O7    A    
C3    C16   S    
C15   C16   S    
O5    Zn1   S    
O1    Zn1   S    
C24   N14   T    
N9    H14   S    
C19   N3    T    
O8    Zn2   S    
