data_mof_unit_pretest_538.cif
_audit_creation_date              2012-12-11T16:53:29-0500
_audit_creation_method            fapswitch 2.2
_symmetry_space_group_name_H-M    P1
_symmetry_Int_Tables_number       1
_space_group_crystal_system       triclinic
_cell_length_a                    14.705801
_cell_length_b                    14.772921
_cell_length_c                    17.309342
_cell_angle_alpha                 108.686043
_cell_angle_beta                  105.714944
_cell_angle_gamma                 107.779206
_cell_volume                      3095.80980028

loop_
_atom_site_label
_atom_site_type_symbol
_atom_type_description
_atom_site_fract_x
_atom_site_fract_y
_atom_site_fract_z
_atom_type_partial_charge
C1    C     C_R   0.095886 0.281562 0.054091 -0.103794
C2    C     C_R   0.032478 0.531570 0.733922 0.099764
C3    C     C_R   0.721964 0.192786 0.732435 -0.057813
C4    C     C_R   0.356154 0.538922 0.038499 0.041881
C5    C     C_R   0.248939 0.701171 0.261177 -0.154464
C6    C     C_R   0.751330 0.568325 0.981485 0.604231
C7    C     C_R   0.892168 0.393903 0.174973 0.541804
C8    C     C_R   0.086114 0.799682 0.003700 -0.191702
C9    C     C_R   0.916487 0.715386 0.921941 0.701288
C10   C     C_R   0.064963 0.481679 0.251251 -0.230132
C11   C     C_R   0.251968 0.797561 0.183323 -0.057372
C12   C     C_R   0.938483 0.493084 0.739780 -0.057519
C13   C     C_R   0.752243 0.476226 0.059462 -0.086366
C14   C     C_R   0.291193 0.801957 0.266757 0.132004
C15   C     C_R   0.726570 0.555386 0.050785 -0.101760
C16   C     C_R   0.974190 0.422038 0.252543 0.008832
C17   C     C_R   0.003656 0.810442 0.952892 -0.115122
C18   C     C_R   0.534864 0.652870 0.061027 0.139452
C19   C     C_R   0.468371 0.563662 0.064382 -0.201950
C20   C     C_R   0.515186 0.507580 0.101837 0.374946
C21   C     C_R   0.624631 0.549555 0.139481 0.329460
C22   C     C_R   0.679465 0.608876 0.104470 -0.053898
C23   C     C_R   0.755277 0.201055 0.817313 -0.201306
C24   C     C_R   0.640264 0.674152 0.078553 0.110013
C25   C     C_3   0.674075 0.787530 0.139738 -0.304685
C26   C     C_3   0.561803 0.765003 0.118864 -0.465983
C27   C     C_R   0.967800 0.419425 0.332550 -0.057853
C28   C     C_R   0.041762 0.532722 0.654920 -0.077455
C29   C     C_R   0.029567 0.615067 0.556925 -0.094612
C30   C     C_R   0.047309 0.621309 0.641011 -0.258357
C31   C     C_R   0.021676 0.437318 0.587111 0.602509
C32   C     C_R   0.999286 0.428458 0.500488 -0.248618
C33   C     C_R   0.006736 0.520010 0.486475 -0.136419
C34   C     C_R   0.299771 0.581234 0.994160 0.585170
C35   C     C_R   0.991672 0.515168 0.402164 0.604714
C36   C     C_R   0.955150 0.328297 0.344168 -0.360983
C37   C     C_R   0.967461 0.330807 0.427277 0.589674
C38   C     C_R   0.641553 0.100500 0.655724 0.074285
C39   C     C_R   0.377976 0.889212 0.343493 -0.068096
C40   C     C_R   0.559757 0.011878 0.415287 -0.297990
C41   C     C_R   0.469194 0.947071 0.337110 0.626051
C42   C     C_R   0.374233 0.900932 0.425206 -0.264303
C43   C     C_R   0.463857 0.963611 0.502442 -0.007700
C44   C     C_R   0.557347 0.019598 0.497097 0.040456
C45   C     C_R   0.756397 0.293971 0.737693 0.590119
C46   C     C_R   0.646608 0.085465 0.574103 -0.138746
C47   C     C_R   0.551904 0.040962 0.662025 -0.353971
C48   C     C_R   0.462464 0.970051 0.584819 0.629963
C49   C     C_R   0.001741 0.052751 0.079471 0.018914
C50   C     C_R   0.034304 0.093508 0.023773 0.059494
C51   C     C_R   0.121981 0.082874 0.010292 -0.169778
C52   C     C_R   0.187763 0.057331 0.066794 -0.195351
C53   C     C_R   0.164516 0.037725 0.134776 0.007206
C54   C     C_R   0.066895 0.026431 0.134309 0.079675
C55   C     C_3   0.039550 0.068126 0.210458 0.362559
C56   C     C_R   0.292817 0.489008 0.072503 -0.138871
C57   C     C_3   0.967405 0.096769 0.151130 -0.597287
C58   C     C_R   0.112623 0.574940 0.816103 -0.170333
C59   C     C_R   0.922103 0.193192 0.982197 -0.056478
C60   C     C_R   0.015034 0.182142 0.013890 0.022378
H1    H     H_    0.176758 0.304674 0.094628 0.134797
H2    H     H_    0.167649 0.851743 0.027667 0.125246
H3    H     H_    0.144056 0.508929 0.298359 0.122417
H4    H     H_    0.274049 0.860362 0.163395 0.112166
H5    H     H_    0.744570 0.446671 0.107520 0.215371
H6    H     H_    0.720036 0.809085 0.210803 0.248988
H7    H     H_    0.862452 0.466775 0.688977 0.162974
H8    H     H_    0.710848 0.842304 0.114192 0.197787
H9    H     H_    0.541886 0.774583 0.177696 0.231177
H10   H     H_    0.536248 0.806539 0.080406 0.221411
H11   H     H_    0.939185 0.255906 0.289749 0.218568
H12   H     H_    0.030359 0.683955 0.547204 0.169897
H13   H     H_    0.059650 0.693292 0.694205 0.157389
H14   H     H_    0.717815 0.131923 0.571285 0.152026
H15   H     H_    0.733482 0.138814 0.837863 0.144509
H16   H     H_    0.548640 0.054828 0.726388 0.172901
H17   H     H_    0.632434 0.053081 0.411981 0.129735
H18   H     H_    0.302101 0.855820 0.427452 0.183861
H19   H     H_    0.149080 0.111009 0.966393 0.171255
H20   H     H_    0.260861 0.061369 0.062587 0.151812
H21   H     H_    0.106291 0.137956 0.269647 0.059269
H22   H     H_    0.882863 0.049816 0.131238 0.241760
H23   H     H_    0.993068 0.183560 0.175672 0.208455
H24   H     H_    0.317191 0.467038 0.125453 0.191058
H25   H     H_    0.194350 0.618609 0.833346 0.169714
H26   H     H_    0.843448 0.133349 0.957368 0.128449
H27   H     H_    0.270529 0.675233 0.312308 0.101368
N1    N     N_R   0.055640 0.348550 0.045600 -0.051123
N2    N     N_R   0.798340 0.505430 0.954400 -0.125108
N3    N     N_R   0.931580 0.439470 0.128350 -0.105267
N4    N     N_R   0.051950 0.704140 0.002340 -0.075598
N5    N     N_R   0.944360 0.651450 0.954400 -0.096262
N6    N     N_R   0.039170 0.492150 0.176290 -0.059958
N7    N     N_R   0.188710 0.696600 0.128350 -0.057341
N8    N     N_R   0.794820 0.447010 0.002340 -0.073474
N9    N     N_R   0.960830 0.507850 0.823710 -0.066121
N10   N     N_R   0.811290 0.303400 0.871650 -0.061735
N11   N     N_R   0.205180 0.552990 0.997660 -0.110940
N12   N     N_R   0.814810 0.361830 0.823710 -0.120350
N13   N     N_R   0.201660 0.494570 0.045600 -0.089167
N14   N     N_R   0.068420 0.560530 0.871650 -0.053956
N15   N     N_R   0.948050 0.295860 0.997660 -0.042664
N16   N     N_R   0.185190 0.638170 0.176290 -0.037623
Ni1   Ni    Ni4+2 0.119330 0.493420 0.109950 0.213090
Ni2   Ni    Ni4+2 0.880670 0.506580 0.890050 0.239462
Ni3   Ni    Ni4+2 0.872590 0.372590 0.000000 0.307734
Ni4   Ni    Ni4+2 0.127410 0.627410 0.000000 0.199609
O1    O     O_3   0.730698 0.634721 0.946324 -0.612125
C61   C     C_3   0.628119 0.579464 0.878761 -0.179854
H28   H     H_    0.569067 0.544019 0.902085 0.113846
H29   H     H_    0.623584 0.516719 0.819799 0.125867
H30   H     H_    0.606830 0.635923 0.857125 0.168407
S1    S     S_3+6 0.772758 0.279653 0.126751 -0.059563
O2    O     O_2   0.707975 0.299029 0.178392 -0.221603
O3    O     O_2   0.713447 0.252165 0.030643 -0.318068
O4    O     O_3   0.796592 0.177138 0.131497 -0.603596
H31   H     H_    0.726749 0.118453 0.108946 0.369733
O5    O     O_3   0.824614 0.675889 0.847124 -0.629927
C62   C     C_3   0.805478 0.758169 0.832268 -0.226927
H32   H     H_    0.862241 0.798152 0.809161 0.139938
H33   H     H_    0.807262 0.816424 0.893116 0.144884
H34   H     H_    0.726092 0.723282 0.778567 0.161513
S2    S     S_3+6 0.445354 0.374982 0.082434 -0.017848
O6    O     O_2   0.344767 0.319084 0.000044 -0.330689
O7    O     O_2   0.511431 0.316184 0.069143 -0.208148
O8    O     O_3   0.419911 0.374415 0.171389 -0.521266
H35   H     H_    0.376176 0.299135 0.153556 0.360746
S3    S     S_3+6 0.692578 0.561846 0.246312 0.029752
O9    O     O_2   0.652292 0.458446 0.251346 -0.175342
O10   O     O_2   0.807673 0.600475 0.268095 -0.252551
O11   O     O_3   0.673748 0.651029 0.321499 -0.531316
H36   H     H_    0.716201 0.658183 0.380222 0.375058
O12   O     O_3   0.996580 0.602333 0.385646 -0.571776
C63   C     C_3   0.101955 0.675485 0.416959 -0.147790
H37   H     H_    0.161476 0.647124 0.440293 0.062150
H38   H     H_    0.118597 0.750425 0.472218 0.172362
H39   H     H_    0.112409 0.694727 0.362146 0.181603
O13   O     O_3   0.955435 0.239280 0.437384 -0.576380
C64   C     C_3   0.847544 0.175022 0.405065 0.003245
H40   H     H_    0.807495 0.146787 0.331708 0.125283
H41   H     H_    0.809299 0.217186 0.440739 0.095695
H42   H     H_    0.837920 0.104255 0.417543 0.168936
O14   O     O_3   0.013911 0.350819 0.604745 -0.598751
C65   C     C_3   0.114937 0.355376 0.637155 -0.109298
H43   H     H_    0.167633 0.426634 0.701764 0.101807
H44   H     H_    0.149928 0.353572 0.587426 0.134544
H45   H     H_    0.108632 0.284801 0.649220 0.177323
O15   O     O_3   0.370968 0.917357 0.590770 -0.609855
C66   C     C_3   0.374884 0.828840 0.603550 -0.299440
H46   H     H_    0.440124 0.853073 0.667652 0.152836
H47   H     H_    0.381642 0.773367 0.546517 0.131028
H48   H     H_    0.300820 0.785466 0.606842 0.179221
O16   O     O_3   0.473210 0.926879 0.254532 -0.659330
C67   C     C_3   0.495968 0.020027 0.242429 -0.274713
H49   H     H_    0.579414 0.077127 0.283644 0.162843
H50   H     H_    0.443636 0.057761 0.256829 0.147381
H51   H     H_    0.482451 0.998678 0.171418 0.177445
S4    S     S_3+6 0.973450 0.964800 0.235394 -0.009147
O17   O     O_2   0.053249 0.957463 0.305655 -0.227686
O18   O     O_2   0.897326 0.990558 0.270828 -0.299089
O19   O     O_3   0.909898 0.847331 0.144046 -0.501956
H52   H     H_    0.871605 0.860827 0.095597 0.324859
O20   O     O_3   0.341518 0.655224 0.965655 -0.634109
C68   C     C_3   0.331578 0.748491 0.007880 -0.354908
H53   H     H_    0.366053 0.779116 0.081677 0.190800
H54   H     H_    0.249422 0.736862 0.983622 0.156065
H55   H     H_    0.375154 0.810125 0.991408 0.182294
O21   O     O_3   0.716947 0.318995 0.669380 -0.638211
C69   C     C_3   0.671309 0.387510 0.696833 -0.280637
H56   H     H_    0.731242 0.465138 0.752364 0.176526
H57   H     H_    0.608352 0.350917 0.716202 0.142326
H58   H     H_    0.634995 0.402342 0.639871 0.188247

loop_
_geom_bond_atom_site_label_1
_geom_bond_atom_site_label_2
_ccdc_geom_bond_type
N14   Ni4   S    
O21   C69   S    
N9    Ni2   S    
C5    N16   A    
O8    H35   S    
C69   H56   S    
C3    C23   A    
C19   C20   A    
C18   C26   S    
C2    C12   A    
S3    O9    D    
C35   O12   S    
C63   H39   S    
O19   H52   S    
S2    O6    D    
C39   C41   A    
C13   H5    S    
C53   C54   A    
O1    C61   S    
C13   N8    A    
C18   C24   A    
C68   H53   S    
C15   C22   S    
C47   H16   S    
C66   H47   S    
C33   C35   A    
C64   H42   S    
S2    O7    D    
C49   C54   A    
C29   C33   A    
N13   Ni1   S    
C49   C57   S    
O4    H31   S    
N6    Ni1   S    
C31   C32   A    
C18   C19   A    
O5    C62   S    
C20   S2    S    
S4    O19   S    
N10   N12   A    
C14   C39   S    
C4    C19   S    
C55   S4    S    
C10   H3    S    
C3    C38   S    
C28   C30   A    
C57   H23   S    
C55   H21   S    
C43   C48   A    
C61   H28   S    
C67   H50   S    
C36   H11   S    
S1    O4    S    
C1    N1    A    
C6    C15   A    
C59   C60   A    
N9    N14   A    
C4    C56   A    
S4    O18   D    
C9    O5    S    
C69   H57   S    
C25   H8    S    
C65   H45   S    
C9    N5    A    
N1    Ni1   S    
C44   C46   A    
C56   H24   S    
C39   C42   A    
C41   O16   S    
C62   H33   S    
N12   Ni2   S    
C12   H7    S    
C4    C34   A    
N7    Ni4   S    
C51   C52   A    
N4    Ni4   S    
O15   C66   S    
N3    Ni3   S    
C67   H51   S    
C65   H44   S    
C11   H4    S    
C45   N12   A    
C1    C60   A    
N4    N5    A    
C58   N14   A    
C30   H13   S    
S2    O8    S    
C63   H38   S    
C10   N6    A    
C27   C35   A    
C25   C26   S    
C7    N3    A    
C3    C45   A    
N11   Ni4   S    
C61   H30   S    
C1    H1    S    
N2    N8    A    
C43   C44   A    
C29   C30   A    
N8    Ni3   S    
C47   C48   A    
C13   C15   A    
C62   H32   S    
C50   C51   A    
C5    C14   A    
C8    N4    A    
C32   C37   A    
C24   C25   S    
C21   S3    S    
C67   H49   S    
C38   C47   A    
N10   Ni3   S    
C11   N7    A    
C9    C17   A    
C40   C41   A    
C23   N10   A    
N7    N16   A    
C34   O20   S    
N11   N13   A    
C37   O13   S    
C55   C57   S    
S4    O17   D    
C26   H10   S    
C69   H58   S    
C22   C24   A    
C66   H48   S    
C42   C43   A    
C56   N13   A    
O11   H36   S    
S3    O11   S    
C46   H14   S    
C52   C53   A    
N3    N6    A    
S1    O2    D    
C62   H34   S    
C54   C55   S    
C36   C37   A    
C57   H22   S    
C59   N15   A    
C52   H20   S    
C28   C31   A    
C7    C16   A    
C25   H6    S    
C8    C17   A    
C23   H15   S    
C65   H43   S    
S3    O10   D    
N1    N15   A    
C64   H40   S    
C2    C58   A    
C42   H18   S    
C63   H37   S    
C27   C36   A    
C6    N2    A    
C58   H25   S    
C50   C60   S    
C32   C33   A    
C29   H12   S    
C61   H29   S    
C59   H26   S    
C11   C14   A    
C10   C16   A    
C66   H46   S    
C64   H41   S    
C7    S1    S    
O12   C63   S    
C16   C27   S    
C48   O15   S    
C68   H54   S    
C34   N11   A    
N15   Ni3   S    
C68   H55   S    
C31   O14   S    
C45   O21   S    
C51   H19   S    
C38   C46   A    
O20   C68   S    
O13   C64   S    
C5    H27   S    
N5    Ni2   S    
C40   C44   A    
C20   C21   A    
C49   C50   A    
N2    Ni2   S    
N16   Ni1   S    
C26   H9    S    
C6    O1    S    
C40   H17   S    
C12   N9    A    
C2    C28   S    
O16   C67   S    
C21   C22   A    
O14   C65   S    
C8    H2    S    
S1    O3    D    
