data_mof_unit_pretest_348.cif
_audit_creation_date              2013-03-05T16:46:59-0500
_audit_creation_method            fapswitch 2.2
_symmetry_space_group_name_H-M    P1
_symmetry_Int_Tables_number       1
_space_group_crystal_system       triclinic
_cell_length_a                    14.965543
_cell_length_b                    8.987577
_cell_length_c                    8.120517
_cell_angle_alpha                 89.828588
_cell_angle_beta                  90.336272
_cell_angle_gamma                 90.131522
_cell_volume                      1092.2152422

loop_
_atom_site_label
_atom_site_type_symbol
_atom_site_description
_atom_site_fract_x
_atom_site_fract_y
_atom_site_fract_z
_atom_type_partial_charge
O1    O     O_R   0.500000 0.285350 0.636850 -0.618640
O2    O     O_R   0.500000 0.714650 0.363150 -0.625698
O3    O     O_R   0.500000 0.714650 0.636850 -0.627460
O4    O     O_R   0.500000 0.285350 0.363150 -0.625631
C1    C     C_R   0.499860 0.217950 0.500203 0.975938
C2    C     C_R   0.499878 0.782049 0.499809 0.971805
O5    O     O_R   0.367850 0.500000 0.636890 -0.624477
O6    O     O_R   0.632150 0.500000 0.363110 -0.646240
O7    O     O_R   0.632150 0.500000 0.636890 -0.634023
O8    O     O_R   0.367850 0.500000 0.363110 -0.623633
C3    C     C_R   0.326791 0.499234 0.499459 1.018073
C4    C     C_R   0.673355 0.502894 0.500423 0.985744
Zn1   Zn    Zn3+2 0.500000 0.500000 0.682780 0.986121
Zn2   Zn    Zn3+2 0.500000 0.500000 0.317220 0.981077
N1    N     N_1   0.500000 0.500000 0.073640 -0.049125
N2    N     N_1   0.500000 0.500000 0.926360 -0.048432
C5    C     C_R   0.813829 0.635931 0.461548 0.397661
C6    C     C_R   0.186323 0.363981 0.493286 0.409073
C7    C     C_R   0.813334 0.370942 0.537784 0.402317
C8    C     C_R   0.186992 0.634733 0.496508 0.412051
C9    C     C_R   0.768719 0.503663 0.500685 -0.300249
C10   C     C_R   0.231757 0.499238 0.497638 -0.300401
C11   C     C_R   0.906651 0.367310 0.528317 -0.185361
C12   C     C_R   0.094494 0.634630 0.472783 -0.202010
C13   C     C_R   0.907409 0.635439 0.459558 -0.170948
C14   C     C_R   0.093585 0.364392 0.511511 -0.198610
C15   C     C_R   0.953481 0.500703 0.492525 -0.162779
C16   C     C_R   0.047048 0.499829 0.491920 -0.170513
C17   C     C_R   0.954573 0.234676 0.556463 0.584045
C18   C     C_R   0.048924 0.764889 0.430978 0.586299
C19   C     C_R   0.956437 0.765610 0.423807 0.601831
C20   C     C_R   0.046968 0.233763 0.548317 0.589034
C21   C     C_1   0.499351 0.065077 0.500347 -0.224044
C22   C     C_1   0.499383 0.934902 0.499714 -0.207273
F1    F     F_    0.913157 0.104932 0.594217 -0.578288
F2    F     F_    0.094060 0.889159 0.385303 -0.587160
F3    F     F_    0.916126 0.893942 0.377920 -0.586314
F4    F     F_    0.091057 0.107259 0.589136 -0.586985
O9    O     O_3   0.767212 0.769181 0.455735 -0.579141
C23   C     C_3   0.740338 0.801755 0.292332 0.141379
H1    H     H_    0.680327 0.736306 0.258633 0.147150
H2    H     H_    0.793657 0.778753 0.200534 0.150121
C24   C     C_3   0.715335 0.965732 0.281418 -0.650769
H3    H     H_    0.776291 0.036131 0.276251 0.301363
H4    H     H_    0.674132 0.986120 0.169837 0.161278
H5    H     H_    0.675910 0.998521 0.390529 0.264032
O10   O     O_3   0.233275 0.233705 0.467440 -0.591465
C25   C     C_3   0.224917 0.196335 0.298808 0.169144
H6    H     H_    0.238858 0.293487 0.216779 0.110528
H7    H     H_    0.156448 0.154051 0.271975 0.212356
C26   C     C_3   0.291511 0.075333 0.256254 -0.724320
H8    H     H_    0.283614 0.978606 0.339533 0.316914
H9    H     H_    0.280058 0.037992 0.128020 0.195038
H10   H     H_    0.360553 0.119082 0.266678 0.235000
O11   O     O_3   0.764372 0.242653 0.568050 -0.580687
C27   C     C_3   0.755873 0.221863 0.740039 0.163339
H11   H     H_    0.708375 0.303135 0.792793 0.140518
H12   H     H_    0.820937 0.233571 0.806302 0.151725
C28   C     C_3   0.720061 0.066122 0.772347 -0.703047
H13   H     H_    0.765061 0.981678 0.717952 0.321902
H14   H     H_    0.716079 0.046446 0.906670 0.176759
H15   H     H_    0.652372 0.053802 0.717704 0.232585
O12   O     O_3   0.234559 0.765127 0.520946 -0.594321
C29   C     C_3   0.224132 0.808152 0.687226 0.169865
H16   H     H_    0.234221 0.713065 0.774152 0.108723
H17   H     H_    0.156275 0.854908 0.706454 0.218162
C30   C     C_3   0.292770 0.926748 0.730606 -0.723257
H18   H     H_    0.292247 0.017122 0.637796 0.311118
H19   H     H_    0.277005 0.974907 0.852326 0.198339
H20   H     H_    0.360351 0.876905 0.736626 0.232894

loop_
_geom_bond_atom_site_label_1
_geom_bond_atom_site_label_2
_geom_bond_distance
_ccdc_geom_bond_type
C13   C19   1.409932 A    
C7    C11   1.399560 A    
O11   C27   1.414965 S    
C23   C24   1.523549 S    
C14   C20   1.396777 A    
C11   C15   1.417542 A    
C13   C15   1.418867 A    
C17   F1    1.354506 S    
C3    C10   1.422229 S    
C14   C16   1.411904 A    
O10   C25   1.415698 S    
O3    Zn1   1.963810 S    
C27   C28   1.520312 S    
C18   F2    1.355831 S    
O6    C4    1.271344 A    
C26   H10   1.107567 S    
C5    C13   1.400669 A    
C29   H16   1.116756 S    
O3    C2    1.265425 A    
C8    O12   1.384000 S    
C25   H7    1.112632 S    
C21   C22   1.169984 T    
C28   H13   1.110180 S    
C6    O10   1.384078 S    
O5    C3    1.270857 A    
O4    C1    1.265532 A    
C24   H4    1.108052 S    
C24   H5    1.108392 S    
O2    C2    1.265906 A    
C2    C22   1.373817 S    
O1    C1    1.265803 A    
N1    N2    1.195989 T    
C11   C17   1.409953 A    
C23   H2    1.115259 S    
C25   H6    1.116678 S    
C7    C9    1.399495 A    
C8    C10   1.391214 A    
C17   C20   1.384753 A    
C20   F4    1.355195 S    
C1    C21   1.373960 S    
C27   H12   1.114646 S    
C24   H3    1.109918 S    
O4    Zn2   1.963811 S    
C18   C19   1.385041 A    
O2    Zn2   1.966001 S    
O7    C4    1.271528 A    
C12   C18   1.396236 A    
C28   H14   1.106424 S    
O1    Zn1   1.966002 S    
O8    C3    1.269444 A    
C30   H18   1.106396 S    
O9    C23   1.414254 S    
C29   C30   1.519322 S    
C8    C12   1.396506 A    
O5    Zn1   2.010348 S    
C26   H8    1.106349 S    
C27   H11   1.109128 S    
C5    O9    1.387904 S    
Zn1   N2    1.977996 S    
C7    O11   1.386820 S    
C15   C16   1.400357 A    
O7    Zn1   2.014646 S    
Zn2   N1    1.977996 S    
C23   H1    1.105958 S    
C28   H15   1.108978 S    
O6    Zn2   2.010347 S    
C19   F3    1.353165 S    
C30   H20   1.107847 S    
C30   H19   1.107141 S    
C6    C10   1.391942 A    
C4    C9    1.427163 S    
C25   C26   1.518749 S    
C5    C9    1.402330 A    
C12   C16   1.411505 A    
C29   H17   1.111964 S    
O12   C29   1.415271 S    
C26   H9    1.107293 S    
O8    Zn2   2.014647 S    
C6    C14   1.396629 A    
