data_mof_unit_pretest_996.cif
_audit_creation_date              2012-12-10T20:32:42-0500
_audit_creation_method            fapswitch 2.2
_symmetry_space_group_name_H-M    P1
_symmetry_Int_Tables_number       1
_space_group_crystal_system       triclinic
_cell_length_a                    11.518104
_cell_length_b                    10.846917
_cell_length_c                    9.865033
_cell_angle_alpha                 87.392209
_cell_angle_beta                  90.727104
_cell_angle_gamma                 91.342256
_cell_volume                      1230.79934987

loop_
_atom_site_label
_atom_site_type_symbol
_atom_type_description
_atom_site_fract_x
_atom_site_fract_y
_atom_site_fract_z
_atom_type_partial_charge
C1    C     C_R   0.504280 0.259898 0.501965 0.879592
C2    C     C_R   0.510148 0.127442 0.501232 -0.162894
C3    C     C_R   0.561520 0.069742 0.389942 0.038239
C4    C     C_R   0.555675 0.941052 0.383783 0.079288
C5    C     C_R   0.502260 0.870915 0.489676 -0.152252
C6    C     C_R   0.448419 0.929138 0.592304 -0.031043
C7    C     C_3   0.451327 0.902033 0.741664 -0.247586
C8    C     C_3   0.455417 0.044285 0.753723 -0.014549
C9    C     C_R   0.398301 0.481835 0.071395 0.162079
C10   C     C_R   0.598073 0.528636 0.071735 -0.162320
C11   C     C_R   0.598204 0.528028 0.928018 -0.140044
C12   C     C_R   0.281946 0.501359 0.499459 0.902551
C13   C     C_R   0.398243 0.486405 0.927698 0.199127
C14   C     C_3   0.319790 0.378223 0.918794 -0.512078
C15   C     C_3   0.327417 0.363964 0.072989 -0.237936
C16   C     C_R   0.503074 0.739556 0.496907 0.904771
C17   C     C_R   0.718152 0.501220 0.500794 0.902451
C18   C     C_1   0.161720 0.506405 0.499409 -0.181457
C19   C     C_1   0.059640 0.509487 0.501740 0.003957
C20   C     C_1   0.940967 0.509179 0.503426 -0.021400
C21   C     C_1   0.838677 0.505899 0.502735 -0.216881
C22   C     C_R   0.450230 0.054536 0.599061 -0.029731
H1    H     H_    0.364283 0.308397 0.863908 0.219190
H2    H     H_    0.382035 0.285253 0.107750 0.147310
H3    H     H_    0.532589 0.855963 0.775944 0.155038
H4    H     H_    0.677906 0.549696 0.125535 0.155003
H5    H     H_    0.678159 0.548080 0.874333 0.151947
H6    H     H_    0.234582 0.403318 0.873235 0.205184
N1    N     N_R   0.499240 0.499140 0.142800 -0.114703
N2    N     N_R   0.499240 0.499180 0.857150 -0.101432
O1    O     O_R   0.500010 0.316790 0.614690 -0.605062
O2    O     O_R   0.500000 0.316760 0.385350 -0.639308
O3    O     O_R   0.334450 0.500030 0.614670 -0.612324
O4    O     O_R   0.334440 0.500000 0.385330 -0.611678
O5    O     O_R   0.500000 0.683240 0.614650 -0.628482
O6    O     O_R   0.499990 0.683210 0.385310 -0.595514
O7    O     O_R   0.665560 0.500000 0.614670 -0.616416
O8    O     O_R   0.665550 0.499970 0.385330 -0.627928
Zn1   Zn    Zn3+2 0.500010 0.500020 0.653130 0.948925
Zn2   Zn    Zn3+2 0.499990 0.499980 0.346870 0.933247
N3    N     N_3   0.627027 0.137754 0.287324 -0.473591
H7    H     H_    0.570043 0.185029 0.221508 0.207209
H8    H     H_    0.684859 0.199492 0.332930 0.188740
C23   C     C_R   0.212001 0.361695 0.145982 0.242534
C24   C     C_R   0.193973 0.273798 0.253544 -0.150677
C25   C     C_R   0.083604 0.253905 0.308791 -0.178802
C26   C     C_R   0.990165 0.322569 0.258585 -0.091524
C27   C     C_R   0.007882 0.414311 0.156604 -0.159058
C28   C     C_R   0.118173 0.434294 0.101057 -0.169951
H9    H     H_    0.264600 0.217297 0.291703 0.116372
H10   H     H_    0.070335 0.184289 0.389577 0.125399
H11   H     H_    0.904399 0.306012 0.300153 0.125927
H12   H     H_    0.935678 0.468648 0.118989 0.123926
H13   H     H_    0.128612 0.502578 0.019423 0.126098
N4    N     N_3   0.610357 0.881631 0.275022 -0.432451
H14   H     H_    0.698688 0.906177 0.275270 0.192637
H15   H     H_    0.573510 0.914444 0.183272 0.189752
C29   C     C_R   0.342787 0.831425 0.792917 0.224841
C30   C     C_R   0.238287 0.826568 0.716366 -0.102732
C31   C     C_R   0.136348 0.778389 0.775142 -0.139245
C32   C     C_R   0.136841 0.735282 0.910441 -0.127234
C33   C     C_R   0.240348 0.735410 0.985778 -0.155012
C34   C     C_R   0.343224 0.781101 0.926689 -0.159973
H16   H     H_    0.233600 0.864348 0.613122 0.110938
H17   H     H_    0.056216 0.777343 0.716640 0.126921
H18   H     H_    0.056837 0.701656 0.956800 0.120154
H19   H     H_    0.240710 0.701308 0.090616 0.141446
H20   H     H_    0.422091 0.783334 0.987622 0.119847
C35   C     C_R   0.344720 0.086734 0.821588 0.124091
C36   C     C_R   0.328482 0.058204 0.961134 -0.188174
C37   C     C_R   0.220538 0.071650 0.020497 -0.096923
C38   C     C_R   0.127984 0.118467 0.943438 -0.076018
C39   C     C_R   0.142832 0.151136 0.806167 -0.168458
C40   C     C_R   0.249834 0.134588 0.744861 -0.143100
H21   H     H_    0.398127 0.018883 0.022544 0.120198
H22   H     H_    0.208477 0.044504 0.126347 0.123121
H23   H     H_    0.044889 0.129152 0.990596 0.124706
H24   H     H_    0.070930 0.187800 0.746591 0.124888
H25   H     H_    0.257039 0.157619 0.637428 0.120482
C41   C     C_R   0.573805 0.093336 0.808323 0.129892
C42   C     C_R   0.678686 0.057013 0.749648 -0.161432
C43   C     C_R   0.786091 0.105964 0.790729 -0.150416
C44   C     C_R   0.791833 0.191217 0.892107 -0.113614
C45   C     C_R   0.690535 0.225809 0.954080 -0.118010
C46   C     C_R   0.582807 0.177774 0.912763 -0.130687
H26   H     H_    0.677989 0.991947 0.669775 0.132835
H27   H     H_    0.864879 0.078165 0.743127 0.124394
H28   H     H_    0.874551 0.230700 0.922852 0.120447
H29   H     H_    0.695525 0.290574 0.034250 0.128160
H30   H     H_    0.507960 0.207814 0.963722 0.106246

loop_
_geom_bond_atom_site_label_1
_geom_bond_atom_site_label_2
_ccdc_geom_bond_type
C23   C28   A    
N4    H14   S    
N3    H7    S    
C19   C20   S    
C42   C43   A    
C7    C8    S    
C24   C25   A    
C30   H16   S    
C33   C34   A    
C33   H19   S    
O4    Zn2   S    
C15   C23   S    
C1    C2    S    
C16   O5    A    
C5    C6    A    
C28   H13   S    
C6    C22   A    
C1    O1    A    
C18   C19   T    
C39   C40   A    
C9    C13   A    
C5    C16   S    
C38   H23   S    
C25   C26   A    
C32   H18   S    
C3    N3    S    
C44   C45   A    
C11   N2    A    
C2    C22   A    
C8    C22   S    
C39   H24   S    
C36   C37   A    
C7    C29   S    
C42   H26   S    
C9    N1    A    
C10   H4    S    
C44   H28   S    
C30   C31   A    
C13   C14   S    
N3    H8    S    
C32   C33   A    
C27   H12   S    
C13   N2    A    
O6    Zn2   S    
C45   C46   A    
C41   C42   A    
C17   O7    A    
C29   C30   A    
C25   H10   S    
C1    O2    A    
C17   C21   S    
C31   C32   A    
C14   H1    S    
O5    Zn1   S    
C41   C46   A    
C26   C27   A    
C11   H5    S    
C8    C35   S    
C35   C40   A    
O3    Zn1   S    
C6    C7    S    
C27   C28   A    
C31   H17   S    
C40   H25   S    
N4    H15   S    
C4    N4    S    
C45   H29   S    
C12   O4    A    
C3    C4    A    
C23   C24   A    
C29   C34   A    
C34   H20   S    
C15   H2    S    
C38   C39   A    
C46   H30   S    
C26   H11   S    
C7    H3    S    
C2    C3    A    
C9    C15   S    
C37   C38   A    
O7    Zn1   S    
C16   O6    A    
O8    Zn2   S    
C10   N1    A    
C37   H22   S    
C24   H9    S    
N1    Zn2   S    
O1    Zn1   S    
N2    Zn1   S    
C17   O8    A    
O2    Zn2   S    
C35   C36   A    
C10   C11   A    
C4    C5    A    
C20   C21   T    
C43   C44   A    
C12   C18   S    
C36   H21   S    
C8    C41   S    
C14   C15   S    
C14   H6    S    
C12   O3    A    
C43   H27   S    
