data_mof_unit_pretest_1973.cif
_audit_creation_date              2012-12-10T17:00:48-0500
_audit_creation_method            fapswitch 2.2
_symmetry_space_group_name_H-M    P1
_symmetry_Int_Tables_number       1
_space_group_crystal_system       triclinic
_cell_length_a                    13.110416
_cell_length_b                    13.210714
_cell_length_c                    19.399794
_cell_angle_alpha                 99.537529
_cell_angle_beta                  80.639555
_cell_angle_gamma                 90.708567
_cell_volume                      3269.07198799

loop_
_atom_site_label
_atom_site_type_symbol
_atom_type_description
_atom_site_fract_x
_atom_site_fract_y
_atom_site_fract_z
_atom_type_partial_charge
Br1   Br    Br    0.348056 0.049426 0.424739 -0.549063
Br2   Br    Br    0.657429 0.378735 0.949833 -0.534923
C1    C     C_R   0.223266 0.535853 0.526843 0.861658
C2    C     C_2   0.472677 0.507628 0.985665 -0.327381
C3    C     C_2   0.542903 0.455397 0.010020 0.245110
C4    C     C_R   0.776159 0.462975 0.472905 0.839363
C5    C     C_R   0.521597 0.475380 0.233005 -0.026103
C6    C     C_2   0.887511 0.449892 0.462369 -0.286989
C7    C     C_2   0.940676 0.495323 0.511610 -0.150040
C8    C     C_2   0.110417 0.546469 0.540191 -0.323522
C9    C     C_2   0.053599 0.487947 0.498344 -0.137860
C10   C     C_2   0.549240 0.884545 0.525999 -0.305911
C11   C     C_2   0.473008 0.948737 0.522588 -0.156511
C12   C     C_R   0.472092 0.507877 0.910280 0.229464
C13   C     C_2   0.447499 0.112529 0.480915 0.069107
C14   C     C_2   0.495762 0.057870 0.520698 -0.052481
C15   C     C_R   0.466092 0.223271 0.480823 0.807107
C16   C     C_R   0.533223 0.775545 0.519985 0.861011
C17   C     C_R   0.511060 0.486287 0.309729 0.782776
C18   C     C_R   0.489092 0.512432 0.690347 0.791137
C19   C     C_R   0.479765 0.511789 0.766161 0.008682
C20   C     C_R   0.484483 0.417910 0.790192 -0.207560
C21   C     C_R   0.478684 0.415805 0.862022 -0.094026
C22   C     C_R   0.575042 0.102535 0.563705 0.168529
C23   C     C_R   0.462172 0.601457 0.886824 -0.162456
C24   C     C_R   0.549681 0.126247 0.637741 -0.139562
C25   C     C_R   0.624194 0.167134 0.678133 -0.142027
C26   C     C_R   0.724246 0.184385 0.644916 -0.079594
C27   C     C_R   0.750362 0.159799 0.571270 -0.110180
C28   C     C_R   0.676360 0.118244 0.530691 -0.123199
C29   C     C_R   0.530749 0.280993 0.218888 0.126236
C30   C     C_R   0.604585 0.266184 0.261580 -0.127938
C31   C     C_R   0.606982 0.175120 0.289163 -0.153498
C32   C     C_R   0.536712 0.097655 0.273715 -0.062671
C33   C     C_R   0.463627 0.111263 0.230895 -0.086647
C34   C     C_R   0.465786 0.603497 0.814841 -0.197853
C35   C     C_R   0.460669 0.202402 0.203398 -0.148790
C36   C     C_R   0.533958 0.558251 0.130036 -0.174458
C37   C     C_R   0.526519 0.564751 0.202788 -0.199188
C38   C     C_R   0.527828 0.377674 0.189543 -0.017715
C39   C     C_R   0.535535 0.372287 0.116167 -0.175456
C40   C     C_R   0.537581 0.462119 0.086588 0.124846
H1    H     H_    0.491497 0.346201 0.753413 0.151109
H2    H     H_    0.454222 0.672875 0.923991 0.137027
H3    H     H_    0.536980 0.628203 0.107517 0.143625
H4    H     H_    0.460556 0.676470 0.797035 0.156067
H5    H     H_    0.415055 0.555791 0.023079 0.140179
H6    H     H_    0.480168 0.342444 0.879811 0.159990
H7    H     H_    0.472305 0.113446 0.663960 0.129048
H8    H     H_    0.604409 0.185483 0.735209 0.142115
H9    H     H_    0.781643 0.216426 0.676275 0.141758
H10   H     H_    0.827960 0.172845 0.545644 0.137043
H11   H     H_    0.697292 0.099203 0.473668 0.112725
H12   H     H_    0.540056 0.298144 0.082016 0.161251
H13   H     H_    0.660524 0.324910 0.273273 0.113534
H14   H     H_    0.663549 0.164471 0.322338 0.119538
H15   H     H_    0.538945 0.027055 0.294906 0.152508
H16   H     H_    0.409166 0.051182 0.219054 0.144004
H17   H     H_    0.403297 0.212057 0.170558 0.129384
H18   H     H_    0.090800 0.434152 0.452814 0.192445
H19   H     H_    0.900810 0.540289 0.560477 0.156777
H20   H     H_    0.073497 0.601459 0.585055 0.159159
H21   H     H_    0.926711 0.409495 0.411765 0.134619
H22   H     H_    0.396165 0.919555 0.517839 0.200077
H23   H     H_    0.628529 0.910260 0.523597 0.150388
H24   H     H_    0.522948 0.639732 0.235786 0.153124
O1    O     O_3   0.500000 0.500000 0.500000 -0.494231
O2    O     O_R   0.441420 0.437150 0.344000 -0.626608
O3    O     O_R   0.438960 0.578560 0.667440 -0.643715
O4    O     O_R   0.575450 0.541060 0.341470 -0.643254
O5    O     O_R   0.544160 0.443230 0.647100 -0.636320
O6    O     O_R   0.530110 0.266880 0.518530 -0.658555
O7    O     O_R   0.465470 0.738830 0.563940 -0.634336
O8    O     O_R   0.266890 0.467300 0.476120 -0.638088
O9    O     O_R   0.737530 0.526990 0.441410 -0.633069
O10   O     O_R   0.276880 0.592620 0.567490 -0.639175
O11   O     O_R   0.718700 0.413090 0.514970 -0.632161
O12   O     O_R   0.414920 0.276880 0.447500 -0.587423
O13   O     O_R   0.589510 0.717410 0.470040 -0.636927
Zn1   Zn    Zn3+2 0.571990 0.407410 0.544380 0.970261
Zn2   Zn    Zn3+2 0.407420 0.421690 0.442900 1.002345
Zn3   Zn    Zn3+2 0.598910 0.570150 0.439280 0.975317
Zn4   Zn    Zn3+2 0.421690 0.600750 0.573440 0.977023

loop_
_geom_bond_atom_site_label_1
_geom_bond_atom_site_label_2
_ccdc_geom_bond_type
C3    C40   S    
O1    Zn4   S    
C39   C40   A    
C4    O9    A    
C19   C34   A    
C24   C25   A    
C33   H16   S    
C7    H19   S    
O2    Zn2   S    
C26   C27   A    
C33   C35   A    
C22   C24   A    
C36   C40   A    
C36   C37   A    
C26   H9    S    
C13   C14   D    
C29   C38   S    
C23   H2    S    
C32   C33   A    
C1    O8    A    
C36   H3    S    
C29   C30   A    
C16   O13   A    
C32   H15   S    
C5    C38   A    
C18   O5    A    
C34   H4    S    
Br1   C13   S    
C30   H13   S    
C25   H8    S    
C31   H14   S    
C14   C22   S    
C19   C20   A    
C8    H20   S    
O10   Zn4   S    
O5    Zn1   S    
C27   H10   S    
C28   H11   S    
C24   H7    S    
C6    C7    D    
C4    O11   A    
C4    C6    S    
C23   C34   A    
C29   C35   A    
C12   C21   A    
C27   C28   A    
O3    Zn4   S    
C20   H1    S    
C31   C32   A    
C17   O2    A    
C10   C11   D    
C1    O10   A    
C7    C9    S    
C35   H17   S    
C15   O6    A    
C38   C39   A    
O1    Zn2   S    
C16   O7    A    
C5    C17   S    
C37   H24   S    
C18   O3    A    
Br2   C3    S    
O8    Zn2   S    
C9    H18   S    
O11   Zn1   S    
C13   C15   S    
C21   H6    S    
O1    Zn1   S    
C2    C3    D    
O13   Zn3   S    
O9    Zn3   S    
C10   H23   S    
C30   C31   A    
O6    Zn1   S    
C1    C8    S    
O12   Zn2   S    
C11   H22   S    
C15   O12   A    
C12   C23   A    
C2    C12   S    
O4    Zn3   S    
C22   C28   A    
C39   H12   S    
C8    C9    D    
C6    H21   S    
C18   C19   S    
O1    Zn3   S    
C11   C14   S    
C10   C16   S    
C25   C26   A    
C5    C37   A    
C20   C21   A    
C17   O4    A    
O7    Zn4   S    
C2    H5    S    
