data_mof_unit_pretest_911.cif
_audit_creation_date              2012-12-11T15:35:29-0500
_audit_creation_method            fapswitch 2.2
_symmetry_space_group_name_H-M    P1
_symmetry_Int_Tables_number       1
_space_group_crystal_system       triclinic
_cell_length_a                    17.522393
_cell_length_b                    24.390957
_cell_length_c                    14.979408
_cell_angle_alpha                 89.264794
_cell_angle_beta                  125.333248
_cell_angle_gamma                 90.924087
_cell_volume                      5222.05265225

loop_
_atom_site_label
_atom_site_type_symbol
_atom_type_description
_atom_site_fract_x
_atom_site_fract_y
_atom_site_fract_z
_atom_type_partial_charge
C1    C     C_R   0.345317 0.149149 0.907507 -0.152372
C2    C     C_R   0.597963 0.130513 0.912827 -0.074917
C3    C     C_R   0.252057 0.546223 0.304338 -0.122631
C4    C     C_R   0.093425 0.371629 0.908399 -0.013627
C5    C     C_R   0.098753 0.624697 0.909065 -0.070864
C6    C     C_R   0.536522 0.000911 0.712531 0.061795
C7    C     C_R   0.938162 0.499937 0.634368 0.066447
C8    C     C_R   0.797971 0.000821 0.368509 0.226745
C9    C     C_R   0.298714 0.501032 0.367724 0.227476
C10   C     C_R   0.688250 0.139535 0.005458 0.104686
C11   C     C_R   0.643241 0.827631 0.005897 0.126805
C12   C     C_R   0.189223 0.635283 0.000520 0.091560
C13   C     C_R   0.347776 0.848847 0.908928 -0.055354
C14   C     C_R   0.176324 0.353778 0.000372 0.072066
C15   C     C_3   0.015296 0.967803 0.660548 0.155511
C16   C     C_3   0.036037 0.061538 0.599416 0.152941
C17   C     C_3   0.512985 0.470614 0.663868 0.164739
C18   C     C_3   0.536957 0.561736 0.597079 0.151392
C19   C     C_3   0.914883 0.957952 0.556873 0.316760
C20   C     C_3   0.928799 0.061256 0.517812 0.278864
C21   C     C_3   0.412141 0.460753 0.559902 0.287849
C22   C     C_3   0.429839 0.561777 0.514041 0.253298
C23   C     C_3   0.055552 0.975357 0.521998 -0.326998
C24   C     C_R   0.846199 0.649238 0.906263 -0.154754
C25   C     C_3   0.555642 0.472418 0.527359 -0.323516
C26   C     C_3   0.073032 0.000776 0.626772 -0.047520
C27   C     C_3   0.572673 0.500839 0.629574 -0.034805
C28   C     C_3   0.894377 0.001819 0.468051 -0.135273
C29   C     C_3   0.394407 0.501978 0.468452 -0.122304
C30   C     C_R   0.440466 0.848554 0.092018 -0.119159
C31   C     C_R   0.436869 0.149649 0.091406 -0.125524
C32   C     C_R   0.943406 0.348539 0.092984 -0.148362
C33   C     C_R   0.937293 0.650500 0.089529 -0.141120
C34   C     C_3   0.954398 0.985028 0.425865 -0.534831
C35   C     C_R   0.849240 0.348318 0.910081 -0.051013
C36   C     C_3   0.455231 0.481819 0.429530 -0.538547
C37   C     C_R   0.300513 0.728878 0.908221 -0.172403
C38   C     C_R   0.227553 0.218724 0.943198 -0.222348
C39   C     C_R   0.810573 0.227168 0.919779 -0.186800
C40   C     C_R   0.716914 0.706491 0.934261 -0.232246
C41   C     C_R   0.765299 0.180390 0.921569 0.474581
C42   C     C_R   0.659754 0.740530 0.942199 0.473330
C43   C     C_R   0.257297 0.680423 0.908090 0.473261
C44   C     C_R   0.178342 0.260779 0.945754 0.478731
C45   C     C_R   0.763691 0.170282 0.013180 -0.005221
C46   C     C_R   0.689341 0.122879 0.094220 -0.133148
C47   C     C_R   0.700133 0.786610 0.009078 -0.029905
C48   C     C_R   0.264583 0.665040 0.003963 -0.009787
C49   C     C_R   0.226579 0.309569 0.998932 -0.024652
C50   C     C_R   0.826379 0.198469 0.110681 -0.186316
C51   C     C_R   0.796384 0.797666 0.070588 -0.200803
C52   C     C_R   0.335123 0.689340 0.103483 -0.179458
C53   C     C_R   0.323249 0.315092 0.053735 -0.189710
C54   C     C_R   0.378546 0.736874 0.103491 -0.132334
C55   C     C_R   0.372672 0.271698 0.053666 -0.139236
C56   C     C_R   0.872767 0.243778 0.109632 -0.135041
C57   C     C_R   0.663335 0.855723 0.095480 -0.145328
C58   C     C_R   0.853332 0.762938 0.063651 -0.142740
C59   C     C_R   0.353970 0.759884 0.004269 0.059818
C60   C     C_R   0.323682 0.224404 0.996957 0.055420
C61   C     C_R   0.857358 0.261293 0.011224 0.064405
C62   C     C_R   0.812825 0.718236 0.994332 0.064554
C63   C     C_R   0.591144 0.952523 0.617358 -0.122775
C64   C     C_R   0.575596 0.051451 0.602903 -0.062795
C65   C     C_R   0.899050 0.449540 0.470031 -0.144114
C66   C     C_R   0.897603 0.548851 0.466469 -0.108598
C67   C     C_R   0.585979 0.951698 0.522245 -0.051580
C68   C     C_R   0.189911 0.621829 0.091595 -0.125805
C69   C     C_R   0.573012 0.050912 0.510343 -0.077173
C70   C     C_R   0.900590 0.449277 0.378786 -0.125604
C71   C     C_R   0.898622 0.548531 0.374807 -0.124021
C72   C     C_R   0.568643 0.000671 0.463871 0.147981
C73   C     C_R   0.910678 0.498880 0.338364 0.128721
C74   C     C_R   0.534512 0.045720 0.294493 -0.076564
C75   C     C_R   0.534232 0.954017 0.295604 -0.110458
C76   C     C_R   0.982328 0.545201 0.250441 -0.043588
C77   C     C_R   0.981444 0.453699 0.250040 -0.048171
C78   C     C_R   0.574604 0.001870 0.649684 0.113839
C79   C     C_R   0.183454 0.370347 0.092688 -0.112284
C80   C     C_R   0.906949 0.499444 0.520487 0.117379
C81   C     C_R   0.230407 0.953318 0.740015 -0.075128
C82   C     C_R   0.232422 0.045471 0.751394 -0.075322
C83   C     C_R   0.730497 0.453319 0.743721 -0.084134
C84   C     C_R   0.732617 0.545408 0.753444 -0.075258
C85   C     C_R   0.371184 0.177996 0.999033 0.083344
C86   C     C_R   0.377389 0.817296 0.001277 0.089694
C87   C     C_R   0.870630 0.678297 0.996512 0.093411
C88   C     C_R   0.880728 0.317364 0.003611 0.103436
C89   C     C_R   0.541719 0.999865 0.353511 0.060589
C90   C     C_R   0.571119 0.852535 0.912058 -0.089709
C91   C     C_R   0.951906 0.499139 0.277101 0.030428
C92   C     C_R   0.174821 0.999429 0.712514 0.133314
C93   C     C_R   0.674789 0.499435 0.716366 0.137101
C94   C     C_R   0.504733 0.045945 0.736502 -0.082999
C95   C     C_R   0.512129 0.954663 0.744889 -0.131358
C96   C     C_R   0.952457 0.545426 0.696859 -0.063581
C97   C     C_R   0.952884 0.454548 0.698081 -0.130582
C98   C     C_R   0.752937 0.954648 0.305975 -0.172752
C99   C     C_R   0.751750 0.046024 0.304775 -0.117965
C100  C     C_R   0.253232 0.454752 0.305879 -0.130142
Cl1   Cl    Cl    0.714145 0.135755 0.810111 -0.672764
Cl2   Cl    Cl    0.540122 0.722971 0.871911 -0.618918
Cl3   Cl    Cl    0.197650 0.640756 0.787969 -0.601578
Cl4   Cl    Cl    0.058827 0.248476 0.889116 -0.655191
Cl5   Cl    Cl    0.062546 0.903062 0.727788 -0.615759
Cl6   Cl    Cl    0.083852 0.102638 0.540165 -0.667638
Cl7   Cl    Cl    0.559336 0.406583 0.734705 -0.628062
Cl8   Cl    Cl    0.587196 0.599279 0.536769 -0.674221
H1    H     H_    0.302515 0.163526 0.823682 0.140821
H2    H     H_    0.912099 0.089277 0.450024 0.126348
H3    H     H_    0.410394 0.419120 0.529069 0.092655
H4    H     H_    0.414473 0.587986 0.444473 0.133213
H5    H     H_    0.068541 0.930452 0.533542 0.181006
H6    H     H_    0.103474 0.993137 0.502849 0.224819
H7    H     H_    0.567492 0.427535 0.542268 0.180337
H8    H     H_    0.604591 0.488038 0.507991 0.221062
H9    H     H_    0.927926 0.946749 0.376516 0.189920
H10   H     H_    0.952026 0.017648 0.371579 0.234929
H11   H     H_    0.428450 0.442637 0.383257 0.184165
H12   H     H_    0.308017 0.834885 0.825201 0.100773
H13   H     H_    0.454339 0.512551 0.373256 0.232723
H14   H     H_    0.288739 0.743071 0.832525 0.167375
H15   H     H_    0.191608 0.180615 0.903276 0.176982
H16   H     H_    0.805535 0.237890 0.846188 0.170911
H17   H     H_    0.687270 0.669802 0.884782 0.171192
H18   H     H_    0.832047 0.190574 0.185359 0.145524
H19   H     H_    0.826813 0.833911 0.121243 0.146818
H20   H     H_    0.350064 0.676189 0.181089 0.148325
H21   H     H_    0.359673 0.352575 0.096254 0.148859
H22   H     H_    0.424074 0.757702 0.180683 0.130819
H23   H     H_    0.802031 0.662624 0.821863 0.138716
H24   H     H_    0.447893 0.274810 0.096656 0.136539
H25   H     H_    0.911303 0.268020 0.183415 0.128050
H26   H     H_    0.928113 0.770638 0.111640 0.137326
H27   H     H_    0.597716 0.913947 0.657464 0.125003
H28   H     H_    0.566366 0.090573 0.627657 0.158800
H29   H     H_    0.900544 0.410458 0.505696 0.121276
H30   H     H_    0.898085 0.588059 0.499581 0.127057
H31   H     H_    0.486816 0.834831 0.175827 0.094089
H32   H     H_    0.475488 0.163077 0.175528 0.104736
H33   H     H_    0.992063 0.334736 0.176405 0.104187
H34   H     H_    0.808669 0.333763 0.826669 0.099361
H35   H     H_    0.975017 0.664484 0.173192 0.109461
H36   H     H_    0.589688 0.912544 0.492133 0.122516
H37   H     H_    0.565045 0.089919 0.471225 0.119322
H38   H     H_    0.903487 0.410122 0.347951 0.115270
H39   H     H_    0.899473 0.587558 0.340423 0.117185
H40   H     H_    0.549490 0.088044 0.319693 0.107138
H41   H     H_    0.547618 0.911771 0.322391 0.085843
H42   H     H_    0.974412 0.587591 0.262491 0.092817
H43   H     H_    0.971793 0.410975 0.260894 0.089169
H44   H     H_    0.208988 0.911180 0.716686 0.149605
H45   H     H_    0.013873 0.992951 0.720658 0.171622
H46   H     H_    0.213692 0.087604 0.746628 0.149909
H47   H     H_    0.708708 0.411038 0.722642 0.147132
H48   H     H_    0.713639 0.587544 0.747884 0.143483
H49   H     H_    0.498632 0.087440 0.708702 0.101042
H50   H     H_    0.519392 0.912396 0.731699 0.097929
H51   H     H_    0.935088 0.587387 0.668985 0.101442
H52   H     H_    0.935723 0.412372 0.672029 0.100314
H53   H     H_    0.768247 0.912350 0.332368 0.095015
H54   H     H_    0.762131 0.088451 0.328750 0.135029
H55   H     H_    0.267701 0.412576 0.333469 0.092845
H56   H     H_    0.057000 0.082088 0.676479 0.140845
H57   H     H_    0.261882 0.588612 0.328872 0.141180
H58   H     H_    0.746858 0.124710 0.179246 0.102300
H59   H     H_    0.712414 0.845240 0.180989 0.108894
H60   H     H_    0.247541 0.625002 0.176443 0.102564
H61   H     H_    0.236903 0.360027 0.177100 0.103531
H62   H     H_    0.535091 0.838337 0.828814 0.136142
H63   H     H_    0.569532 0.146079 0.832008 0.135148
H64   H     H_    0.064338 0.362825 0.823778 0.127451
H65   H     H_    0.069775 0.632254 0.824248 0.158713
H66   H     H_    0.731796 0.888983 0.467144 0.319110
H67   H     H_    0.511403 0.497424 0.722017 0.169053
H68   H     H_    0.889597 0.175122 0.642728 0.399359
H69   H     H_    0.298079 0.368032 0.559225 0.333516
H70   H     H_    0.349816 0.682733 0.578470 0.395339
H71   H     H_    0.557608 0.584489 0.671804 0.141300
H72   H     H_    0.914451 0.917383 0.523282 0.114072
N1    N     N_R   0.392140 0.102630 0.941800 -0.047861
N2    N     N_R   0.525160 0.972040 0.206160 -0.042447
N3    N     N_R   0.025160 0.527960 0.206160 -0.040673
N4    N     N_R   0.025160 0.472040 0.206160 -0.041328
N5    N     N_R   0.317870 0.971120 0.792790 -0.063694
N6    N     N_R   0.317870 0.028880 0.792790 -0.053304
N7    N     N_R   0.817870 0.471120 0.792790 -0.064492
N8    N     N_R   0.817870 0.528880 0.792790 -0.053720
N9    N     N_R   0.473480 0.027920 0.793480 -0.046021
N10   N     N_R   0.473480 0.972080 0.793480 -0.045983
N11   N     N_R   0.973480 0.527920 0.793480 -0.049205
N12   N     N_R   0.392140 0.897370 0.941800 -0.049086
N13   N     N_R   0.973480 0.472080 0.793480 -0.049067
N14   N     N_R   0.681610 0.971120 0.207570 -0.043134
N15   N     N_R   0.681610 0.028880 0.207570 -0.052746
N16   N     N_R   0.181610 0.471120 0.207570 -0.051084
N17   N     N_R   0.181610 0.528880 0.207570 -0.056369
N18   N     N_R   0.605410 0.102620 0.056870 -0.047532
N19   N     N_R   0.605410 0.897380 0.056870 -0.044064
N20   N     N_R   0.105410 0.602620 0.056870 -0.046863
N21   N     N_R   0.105410 0.397380 0.056870 -0.046591
N22   N     N_R   0.549680 0.896430 0.944180 -0.052399
N23   N     N_R   0.892140 0.602630 0.941800 -0.048348
N24   N     N_R   0.549680 0.103570 0.944180 -0.052780
N25   N     N_R   0.049680 0.396430 0.944180 -0.050502
N26   N     N_R   0.049680 0.603570 0.944180 -0.056286
N27   N     N_R   0.892140 0.397370 0.941800 -0.049755
N28   N     N_R   0.450890 0.896450 0.057150 -0.045028
N29   N     N_R   0.450890 0.103550 0.057150 -0.044183
N30   N     N_R   0.950890 0.396450 0.057150 -0.049570
N31   N     N_R   0.950890 0.603550 0.057150 -0.047241
N32   N     N_R   0.525160 0.027960 0.206160 -0.046044
Ni1   Ni    Ni4+2 0.433410 0.064680 0.868830 0.243444
Ni2   Ni    Ni4+2 0.433410 0.935320 0.868830 0.229046
Ni3   Ni    Ni4+2 0.933410 0.564680 0.868830 0.236680
Ni4   Ni    Ni4+2 0.933410 0.435320 0.868830 0.228691
Ni5   Ni    Ni4+2 0.565650 0.934380 0.131170 0.221771
Ni6   Ni    Ni4+2 0.565650 0.065620 0.131170 0.238006
Ni7   Ni    Ni4+2 0.065650 0.434380 0.131170 0.238778
Ni8   Ni    Ni4+2 0.065650 0.565620 0.131170 0.249255
O1    O     O_2   0.873670 0.953242 0.707310 -0.162525
O2    O     O_2   0.273367 0.579758 0.510237 -0.221238
O3    O     O_2   0.425063 0.588463 0.688232 -0.227513
O4    O     O_3   0.376931 0.664652 0.544080 -0.515363
O5    O     O_2   0.753586 0.989996 0.527170 -0.261310
O6    O     O_3   0.781742 0.885444 0.546383 -0.508128
O7    O     O_2   0.770844 0.095724 0.498481 -0.275728
O8    O     O_2   0.902542 0.066896 0.681465 -0.221815
O9    O     O_3   0.915762 0.159338 0.605295 -0.502570
O10   O     O_2   0.349598 0.491163 0.683113 -0.134091
O11   O     O_2   0.229046 0.468383 0.491919 -0.271217
O12   O     O_3   0.324890 0.389693 0.626856 -0.458815
S1    S     S_3+6 0.829433 0.948533 0.586732 0.035119
S2    S     S_3+6 0.875571 0.094293 0.576811 -0.004920
S3    S     S_3+6 0.325705 0.454949 0.589776 0.055760
S4    S     S_3+6 0.373771 0.597266 0.567034 0.004047

loop_
_geom_bond_atom_site_label_1
_geom_bond_atom_site_label_2
_ccdc_geom_bond_type
C44   C49   A    
C58   C62   A    
C2    C10   A    
C71   H39   S    
C64   H28   S    
C24   N23   A    
C34   H10   S    
N3    Ni8   S    
C31   C85   A    
C22   C29   S    
C95   H50   S    
C69   H37   S    
C11   C47   S    
N19   Ni5   S    
C12   C48   S    
N23   N31   A    
C77   H43   S    
H69   O12   S    
C56   H25   S    
C52   H20   S    
C82   C92   A    
C4    N25   A    
C39   C41   A    
N26   Ni3   S    
C16   H56   S    
C15   C19   S    
C7    C96   A    
C12   C68   A    
C29   C36   S    
O2    S4    D    
C46   H58   S    
O6    S1    S    
C33   H35   S    
C24   H23   S    
N29   Ni6   S    
C96   N11   A    
N23   Ni3   S    
C8    C99   A    
C25   H7    S    
C22   S4    S    
C46   N18   A    
C14   C49   S    
C83   H47   S    
H68   O9    S    
C26   C92   S    
C65   C70   A    
C83   C93   A    
N6    Ni1   S    
C99   N15   A    
C77   N4    A    
C40   C62   A    
N5    Ni2   S    
C98   N14   A    
C6    C78   S    
N1    N29   A    
C67   C72   A    
C23   C26   S    
N12   Ni2   S    
O9    S2    S    
C36   H11   S    
C8    C98   A    
C19   S1    S    
C95   N10   A    
N11   Ni3   S    
C5    N26   A    
C81   C92   A    
C100  N16   A    
N4    Ni7   S    
O4    S4    S    
N25   Ni4   S    
C79   N21   A    
C66   H30   S    
C13   C86   A    
C10   C46   A    
N19   N22   A    
C3    H57   S    
C50   H18   S    
C70   H38   S    
C30   C86   A    
C76   N3    A    
C7    C97   A    
C43   C48   A    
O8    S2    D    
C38   H15   S    
C16   Cl6   S    
C2    H63   S    
C84   C93   A    
C65   H29   S    
C34   H9    S    
C40   C42   A    
N14   N15   A    
C28   C34   S    
C65   C80   A    
C55   C60   A    
C57   N19   A    
C1    C85   A    
C58   H26   S    
N12   N28   A    
C83   N7    A    
N18   Ni6   S    
C64   C78   A    
C10   C45   S    
C54   H22   S    
C67   H36   S    
C42   Cl2   S    
C81   N5    A    
C21   H3    S    
N8    Ni3   S    
C52   C54   A    
N14   Ni5   S    
C43   Cl3   S    
C54   C59   A    
C53   C55   A    
C16   C26   S    
C39   C61   A    
C63   C67   A    
C15   H45   S    
N21   N25   A    
C17   C27   S    
C97   H52   S    
C2    N24   A    
N21   Ni7   S    
C5    C12   A    
C25   H8    S    
C71   C73   A    
C1    N1    A    
C15   C26   S    
C47   C51   A    
C20   C28   S    
C6    C94   A    
C64   C69   A    
C21   C29   S    
N24   Ni1   S    
O12   S3    S    
C50   C56   A    
C39   H16   S    
C74   N32   A    
C63   H27   S    
C76   C91   A    
C37   C43   A    
C69   C72   A    
N3    N4    A    
N11   N13   A    
C38   C44   A    
C3    C9    A    
C61   C88   S    
C23   H5    S    
C99   H54   S    
C32   N30   A    
C35   C88   A    
C66   C71   A    
C31   N29   A    
C76   H42   S    
N31   Ni8   S    
C16   C20   S    
C23   C34   S    
C30   N28   A    
C90   H62   S    
C70   C73   A    
N2    N32   A    
O10   S3    D    
C51   C58   A    
C14   C79   A    
N22   Ni2   S    
C19   C28   S    
N10   Ni2   S    
C73   C91   S    
C32   H33   S    
C37   C59   A    
N9    Ni1   S    
N27   N30   A    
C38   C60   A    
C68   H60   S    
C35   N27   A    
C98   H53   S    
C82   N6    A    
C18   H71   S    
C55   H24   S    
C9    C100  A    
C20   S2    S    
N18   N24   A    
C25   C27   S    
N20   Ni8   S    
C20   H2    S    
C27   C93   S    
C32   C88   A    
C53   H21   S    
N17   Ni8   S    
N16   Ni7   S    
C74   C89   A    
N13   Ni4   S    
C74   H40   S    
N28   Ni5   S    
O7    S2    D    
N7    Ni4   S    
C77   C91   A    
N20   N26   A    
C30   H31   S    
C4    H64   S    
O1    S1    D    
C25   C36   S    
C18   C22   S    
C5    H65   S    
C18   C27   S    
N16   N17   A    
H70   O4    S    
O11   S3    D    
C60   C85   S    
C44   Cl4   S    
C57   H59   S    
C9    C29   S    
C94   H49   S    
C81   H44   S    
C66   C80   A    
C62   C87   S    
C22   H4    S    
C68   N20   A    
C51   H19   S    
C15   Cl5   S    
C17   Cl7   S    
C36   H13   S    
H66   O6    S    
C94   N9    A    
O5    S1    D    
N7    N8    A    
C4    C14   A    
N2    Ni5   S    
C23   H6    S    
C72   C89   S    
C84   H48   S    
C11   C90   A    
C79   H61   S    
N5    N6    A    
C21   S3    S    
N32   Ni6   S    
C45   C50   A    
C75   H41   S    
C1    H1    S    
C49   C53   A    
C40   H17   S    
N27   Ni4   S    
C3    N17   A    
C41   Cl1   S    
C100  H55   S    
C13   N12   A    
C42   C47   A    
C33   C87   A    
N9    N10   A    
C33   N31   A    
C24   C87   A    
C18   Cl8   S    
C59   C86   S    
C84   N8    A    
O3    S4    D    
N30   Ni7   S    
C35   H34   S    
C37   H14   S    
C82   H46   S    
C48   C52   A    
C96   H51   S    
C8    C28   S    
C6    C95   A    
C75   C89   A    
C97   N13   A    
C41   C45   A    
C56   C61   A    
N1    Ni1   S    
C13   H12   S    
C31   H32   S    
C11   C57   A    
C75   N2    A    
C19   H72   S    
N15   Ni6   S    
C17   H67   S    
C7    C80   S    
C90   N22   A    
C63   C78   A    
C17   C21   S    
