data_mof_unit_pretest_1347.cif
_audit_creation_date              2013-03-05T16:03:15-0500
_audit_creation_method            fapswitch 2.2
_symmetry_space_group_name_H-M    P1
_symmetry_Int_Tables_number       1
_space_group_crystal_system       triclinic
_cell_length_a                    15.677131
_cell_length_b                    14.923226
_cell_length_c                    14.187413
_cell_angle_alpha                 89.355141
_cell_angle_beta                  90.148132
_cell_angle_gamma                 88.950906
_cell_volume                      3318.41356122

loop_
_atom_site_label
_atom_site_type_symbol
_atom_site_description
_atom_site_fract_x
_atom_site_fract_y
_atom_site_fract_z
_atom_type_partial_charge
O1    O     O_R   0.500020 0.367860 0.580280 -0.557681
O2    O     O_R   0.499980 0.632140 0.419720 -0.600876
O3    O     O_R   0.500020 0.367840 0.419730 -0.614948
O4    O     O_R   0.499980 0.632160 0.580270 -0.607216
C1    C     C_R   0.498062 0.327502 0.500598 0.895663
C2    C     C_R   0.502216 0.672478 0.499450 0.903246
O5    O     O_R   0.376770 0.500000 0.580260 -0.591073
O6    O     O_R   0.623230 0.500000 0.419740 -0.589063
O7    O     O_R   0.376780 0.499980 0.419710 -0.586862
O8    O     O_R   0.623220 0.500020 0.580290 -0.621214
C3    C     C_R   0.338113 0.502425 0.499804 0.933342
C4    C     C_R   0.661887 0.497990 0.500123 0.943449
Zn1   Zn    Zn3+2 0.499990 0.500020 0.607200 1.037738
Zn2   Zn    Zn3+2 0.500010 0.499980 0.392800 1.034329
C5    C     C_3   0.975139 0.427673 0.541753 -0.211306
C6    C     C_3   0.024658 0.580464 0.455554 -0.196489
C7    C     C_3   0.030507 0.433734 0.452331 0.131439
C8    C     C_3   0.969186 0.574396 0.544973 0.148099
H1    H     H_    0.953199 0.365150 0.576304 0.156937
H2    H     H_    0.046496 0.642933 0.420853 0.156998
H3    H     H_    0.945384 0.508199 0.335824 0.163690
H4    H     H_    0.054195 0.500138 0.661578 0.166935
C9    C     C_1   0.249138 0.506477 0.499278 -0.082506
C10   C     C_1   0.750827 0.497544 0.500118 -0.067072
C11   C     C_3   0.028705 0.501526 0.588489 -0.171388
C12   C     C_3   0.970987 0.506626 0.408862 -0.172777
C13   C     C_3   0.082828 0.506764 0.498545 0.121277
C14   C     C_3   0.916956 0.501336 0.498829 0.120064
C15   C     C_1   0.173736 0.508051 0.498833 -0.059547
C16   C     C_1   0.826152 0.498558 0.499532 -0.049732
C17   C     C_R   0.428781 0.813099 0.486638 -0.230660
C18   C     C_R   0.572599 0.187055 0.507821 -0.178865
C19   C     C_R   0.505436 0.767761 0.497717 -0.074466
C20   C     C_R   0.495407 0.232134 0.502546 -0.072126
C21   C     C_R   0.582005 0.812229 0.511646 -0.043750
C22   C     C_R   0.418078 0.187729 0.497182 -0.055656
C23   C     C_R   0.582075 0.906467 0.500934 -0.027316
C24   C     C_R   0.418540 0.093125 0.504846 -0.035125
C25   C     C_R   0.501780 0.953115 0.499971 0.034269
C26   C     C_R   0.499011 0.046682 0.501949 0.032089
C27   C     C_R   0.424181 0.905508 0.496829 0.113943
C28   C     C_R   0.576778 0.094261 0.501493 0.105140
C29   C     C_R   0.658990 0.954728 0.490120 -0.026174
C30   C     C_R   0.342036 0.043894 0.515659 -0.040061
C31   C     C_R   0.656765 0.049198 0.492215 0.017843
C32   C     C_R   0.344113 0.949955 0.506953 0.018498
H5    H     H_    0.372624 0.773530 0.475754 0.128241
H6    H     H_    0.629104 0.227045 0.513730 0.135346
C33   C     C_R   0.442158 0.552618 0.797715 0.067211
C34   C     C_R   0.550626 0.439794 0.202279 0.067162
N1    N     N_R   0.500040 0.500070 0.750030 -0.184044
N2    N     N_R   0.499960 0.499930 0.249970 -0.184606
C35   C     C_R   0.557544 0.446614 0.799473 0.047927
C36   C     C_R   0.447951 0.559446 0.200730 0.039422
C37   C     C_R   0.552420 0.437536 0.900082 -0.105715
C38   C     C_R   0.439836 0.554684 0.100082 -0.107135
C39   C     C_R   0.496030 0.495266 0.949527 0.095975
C40   C     C_R   0.495332 0.495953 0.050602 0.097847
C41   C     C_R   0.440753 0.552987 0.898024 -0.050000
C42   C     C_R   0.550745 0.438246 0.102006 -0.050369
C43   C     C_R   0.602504 0.374383 0.953685 -0.022346
C44   C     C_R   0.379763 0.607234 0.046344 -0.016605
C45   C     C_R   0.603266 0.377938 0.052234 -0.188963
C46   C     C_R   0.383130 0.607914 0.947767 -0.187216
H7    H     H_    0.643338 0.329726 0.090062 0.181851
H8    H     H_    0.337140 0.649877 0.909951 0.177380
C47   C     C_3   0.068407 0.353517 0.399924 -0.391462
C48   C     C_3   0.998307 0.298098 0.354638 -0.388885
C49   C     C_3   0.035747 0.215749 0.305966 -0.754687
H9    H     H_    0.081085 0.236193 0.249994 0.278573
H10   H     H_    0.069514 0.171541 0.357897 0.281253
H11   H     H_    0.983580 0.177424 0.273209 0.246033
H12   H     H_    0.952614 0.275919 0.409407 0.224145
H13   H     H_    0.962817 0.339770 0.301676 0.237855
H14   H     H_    0.112333 0.378355 0.344520 0.232011
H15   H     H_    0.105623 0.311145 0.450757 0.214254
C50   C     C_3   0.930573 0.654468 0.596929 -0.410749
C51   C     C_3   0.000253 0.712655 0.638914 -0.375543
C52   C     C_3   0.961846 0.794907 0.686885 -0.778127
H16   H     H_    0.925910 0.837186 0.634946 0.297146
H17   H     H_    0.918244 0.774286 0.744465 0.269419
H18   H     H_    0.013683 0.835288 0.717399 0.252039
H19   H     H_    0.037968 0.672899 0.691625 0.241017
H20   H     H_    0.044070 0.735114 0.582362 0.228544
H21   H     H_    0.890972 0.694824 0.546418 0.232153
H22   H     H_    0.888690 0.629339 0.654124 0.220098
C53   C     C_2   0.647471 0.296333 0.912089 0.921119
O9    O     O_2   0.609034 0.245991 0.860254 -0.575459
O10   O     O_R   0.732471 0.277698 0.936389 -0.776839
H23   H     H_    0.755892 0.222035 0.904482 0.352414
C54   C     C_2   0.305591 0.654841 0.087750 0.911804
O11   O     O_2   0.254491 0.613515 0.135619 -0.589682
O12   O     O_R   0.291659 0.745821 0.067556 -0.765858
H24   H     H_    0.238357 0.770652 0.098921 0.350471
C55   C     C_2   0.657818 0.760548 0.546693 0.912351
O13   O     O_2   0.686285 0.697537 0.501616 -0.640367
O14   O     O_R   0.696909 0.785172 0.630956 -0.764570
H25   H     H_    0.748141 0.745525 0.647361 0.347437
C56   C     C_2   0.339523 0.241467 0.477233 0.889615
O15   O     O_2   0.303294 0.234698 0.401287 -0.592853
O16   O     O_R   0.306361 0.297908 0.546440 -0.768927
H26   H     H_    0.248838 0.324642 0.527913 0.328473
C57   C     C_2   0.740039 0.907525 0.465054 0.898783
O17   O     O_2   0.802567 0.912399 0.516328 -0.645517
O18   O     O_R   0.743945 0.856715 0.382952 -0.764176
H27   H     H_    0.801925 0.826932 0.373748 0.352624
C58   C     C_2   0.261433 0.088222 0.546524 0.907648
O19   O     O_2   0.257326 0.121391 0.624840 -0.577904
O20   O     O_R   0.190585 0.091463 0.486469 -0.805793
H28   H     H_    0.139682 0.123340 0.515740 0.337514
C59   C     C_3   0.739062 0.101953 0.479743 -0.400589
C60   C     C_3   0.776340 0.127534 0.575774 -0.286983
C61   C     C_3   0.851426 0.190229 0.564294 -0.912936
H29   H     H_    0.902938 0.157277 0.522865 0.275256
H30   H     H_    0.830410 0.253285 0.528090 0.246097
H31   H     H_    0.877153 0.207157 0.634741 0.267237
H32   H     H_    0.726997 0.161064 0.619720 0.232979
H33   H     H_    0.798297 0.065993 0.614133 0.267711
H34   H     H_    0.788204 0.064309 0.439537 0.221215
H35   H     H_    0.727711 0.162025 0.434254 0.198971
C62   C     C_3   0.261546 0.896783 0.514089 -0.403589
C63   C     C_3   0.226415 0.876512 0.415644 -0.287406
C64   C     C_3   0.151384 0.813061 0.421265 -0.894330
H36   H     H_    0.171794 0.748398 0.454663 0.254270
H37   H     H_    0.098689 0.843714 0.462842 0.273093
H38   H     H_    0.127511 0.799564 0.349142 0.267238
H39   H     H_    0.204972 0.940046 0.380669 0.269116
H40   H     H_    0.276832 0.845729 0.370983 0.224560
H41   H     H_    0.271932 0.834408 0.556241 0.189037
H42   H     H_    0.211302 0.932230 0.554797 0.221096
C65   C     C_2   0.382742 0.612071 0.744568 0.946569
O21   O     O_2   0.310397 0.587358 0.727888 -0.634694
O22   O     O_R   0.406555 0.699519 0.722248 -0.775530
H43   H     H_    0.359753 0.734702 0.688026 0.328790
C66   C     C_2   0.607890 0.377968 0.255383 0.947206
O23   O     O_2   0.585496 0.301412 0.272209 -0.621272
O24   O     O_R   0.690548 0.404293 0.277541 -0.791869
H44   H     H_    0.724591 0.355447 0.311761 0.322211
C67   C     C_2   0.633953 0.412419 0.750083 0.975327
O25   O     O_2   0.702378 0.448410 0.763079 -0.630303
O26   O     O_R   0.629365 0.337950 0.691776 -0.754298
H45   H     H_    0.686452 0.321557 0.662635 0.317434
C68   C     C_2   0.412018 0.637386 0.250953 0.978251
O27   O     O_2   0.445878 0.710159 0.242125 -0.601930
O28   O     O_R   0.337923 0.629490 0.304509 -0.758587
H46   H     H_    0.319177 0.688217 0.333784 0.320854

loop_
_geom_bond_atom_site_label_1
_geom_bond_atom_site_label_2
_geom_bond_distance
_ccdc_geom_bond_type
C24   C26   1.429149 A    
H3    C12   1.110121 S    
C45   H7    1.083211 S    
O12   H24   1.013863 S    
C13   C15   1.425657 S    
C58   O20   1.397913 S    
C59   C60   1.535986 S    
C62   H42   1.108055 S    
C53   O9    1.222725 D    
O28   H46   1.013082 S    
C5    C14   1.535136 S    
C64   H36   1.111626 S    
C25   C27   1.420818 A    
C50   C51   1.531392 S    
C5    H1    1.109725 S    
C33   C65   1.474588 S    
C41   C46   1.405417 A    
O16   H26   1.012290 S    
C42   C45   1.405953 A    
O1    C1    1.287438 A    
C7    C12   1.542423 S    
C9    C15   1.181888 T    
C21   C23   1.412841 A    
C34   C66   1.474896 S    
C60   H32   1.110338 S    
C39   C41   1.407869 A    
C40   C42   1.408307 A    
C68   O27   1.222810 D    
C68   O28   1.395739 S    
O4    Zn1   2.004398 S    
C59   H34   1.108208 S    
C63   H39   1.111330 S    
C49   H10   1.110201 S    
C44   C46   1.399616 A    
C43   C53   1.479685 S    
Zn1   N1    2.026393 S    
C51   H19   1.111629 S    
Zn2   N2    2.026396 S    
C55   O13   1.221493 D    
N2    C36   1.377761 A    
C48   C49   1.525238 S    
C33   N1    1.373002 A    
H4    C11   1.110158 S    
C34   N2    1.372751 A    
C27   C32   1.417319 A    
C17   C19   1.376042 A    
C32   C62   1.533582 S    
C6    H2    1.109452 S    
C61   H31   1.110296 S    
C6    C13   1.535777 S    
C26   C28   1.422037 A    
C36   C68   1.474662 S    
C50   H21   1.111739 S    
C17   H5    1.080733 S    
C1    C20   1.424528 S    
C18   H6    1.080741 S    
O2    C2    1.288034 A    
C8    C11   1.542432 S    
C60   C61   1.524937 S    
C30   C32   1.408476 A    
O14   H25   1.013827 S    
C29   C57   1.487397 S    
C35   C37   1.434866 A    
C6    C12   1.551931 S    
C36   C38   1.435934 A    
C7    C47   1.528125 S    
C47   C48   1.531687 S    
C7    C13   1.528546 S    
C66   O23   1.222470 D    
C8    C14   1.527664 S    
O4    C2    1.289745 A    
C54   O11   1.222623 D    
C52   H17   1.110949 S    
C51   C52   1.525208 S    
C64   H38   1.110428 S    
C65   O22   1.397084 S    
C48   H12   1.110070 S    
C59   H35   1.110125 S    
N1    C35   1.378018 A    
C28   C31   1.419141 A    
C18   C20   1.375204 A    
C23   C29   1.423541 A    
C49   H11   1.110431 S    
O5    C3    1.290819 A    
O7    Zn2   1.970224 S    
C24   C30   1.425649 A    
C54   O12   1.397581 S    
C29   C31   1.410240 A    
C56   O15   1.222767 D    
O6    C4    1.289862 A    
C44   C54   1.478052 S    
C43   C45   1.399791 A    
C57   O18   1.397863 S    
O7    C3    1.289851 A    
C62   C63   1.535318 S    
O3    Zn2   2.004396 S    
O8    C4    1.290597 A    
C56   O16   1.396060 S    
C50   H22   1.111358 S    
C37   C39   1.415882 A    
O22   H43   1.013926 S    
C38   C44   1.427929 A    
C47   H14   1.111336 S    
C58   O19   1.222817 D    
C65   O21   1.222393 D    
C25   C26   1.396801 A    
C61   H29   1.110793 S    
O18   H27   1.013882 S    
C30   C58   1.484879 S    
C66   O24   1.397021 S    
O6    Zn2   1.968221 S    
C17   C27   1.388796 A    
C35   C67   1.475248 S    
C62   H41   1.109967 S    
O3    C1    1.290321 A    
O8    Zn1   1.970224 S    
C52   H18   1.110388 S    
C67   O25   1.222893 D    
C55   O14   1.397892 S    
C5    C7    1.541782 S    
C21   C55   1.486407 S    
C11   C13   1.536286 S    
O24   H44   1.014078 S    
C4    C10   1.394214 S    
C12   C14   1.535802 S    
C33   C41   1.423421 A    
C2    C19   1.423693 S    
C34   C42   1.423073 A    
C53   O10   1.397776 S    
O10   H23   1.013864 S    
C14   C16   1.424965 S    
C23   C25   1.427224 A    
C31   C59   1.533276 S    
C22   C24   1.414643 A    
C60   H33   1.110996 S    
C67   O26   1.395632 S    
C39   C40   1.434219 A    
C8    C50   1.527517 S    
C37   C43   1.427137 A    
C3    C9    1.395078 S    
C19   C21   1.396859 A    
C38   C40   1.416690 A    
C22   C56   1.482153 S    
C20   C22   1.394512 A    
C63   H40   1.110437 S    
C49   H9    1.110982 S    
O2    Zn2   2.013100 S    
C10   C16   1.181306 T    
C64   H37   1.111044 S    
C52   H16   1.110329 S    
C51   H20   1.110468 S    
O5    Zn1   1.968221 S    
O1    Zn1   2.013101 S    
C5    C11   1.551454 S    
C6    C8    1.542684 S    
O20   H28   1.013826 S    
C57   O17   1.222893 D    
C18   C28   1.389059 A    
C47   H15   1.111027 S    
C63   C64   1.525172 S    
O26   H45   1.013848 S    
C48   H13   1.111549 S    
C46   H8    1.083378 S    
C61   H30   1.111191 S    
