data_mof_unit_pretest_518.cif
_audit_creation_date              2012-12-10T18:06:46-0500
_audit_creation_method            fapswitch 2.2
_symmetry_space_group_name_H-M    P1
_symmetry_Int_Tables_number       1
_space_group_crystal_system       triclinic
_cell_length_a                    12.608372
_cell_length_b                    13.149373
_cell_length_c                    15.242031
_cell_angle_alpha                 83.324029
_cell_angle_beta                  98.397955
_cell_angle_gamma                 96.945853
_cell_volume                      2469.02828221

loop_
_atom_site_label
_atom_site_type_symbol
_atom_type_description
_atom_site_fract_x
_atom_site_fract_y
_atom_site_fract_z
_atom_type_partial_charge
C1    C     C_R   0.442164 0.308537 0.507365 0.854221
C2    C     C_R   0.470626 0.593425 0.095461 0.086389
C3    C     C_R   0.367851 0.623933 0.060307 0.139124
C4    C     C_R   0.551189 0.598493 0.039384 0.031725
C5    C     C_R   0.520598 0.612441 0.946395 0.041516
C6    C     C_R   0.424176 0.659220 0.912863 0.152104
C7    C     C_R   0.347864 0.661876 0.970739 -0.285242
C8    C     C_R   0.660669 0.587961 0.072491 -0.217159
C9    C     C_R   0.733588 0.575774 0.015187 -0.231620
C10   C     C_R   0.696310 0.563492 0.925958 0.162462
C11   C     C_R   0.587585 0.576941 0.892336 0.094002
C12   C     C_R   0.436886 0.516040 0.335144 0.848850
C13   C     C_R   0.763746 0.531715 0.871281 -0.179080
C14   C     C_R   0.721734 0.506464 0.785774 -0.156590
C15   C     C_R   0.544802 0.540124 0.811055 -0.256561
C16   C     C_R   0.644006 0.943092 0.368024 -0.197716
C17   C     C_R   0.583878 0.801050 0.470199 -0.038251
C18   C     C_R   0.334084 0.158724 0.574023 -0.189940
C19   C     C_R   0.315932 0.053180 0.595267 -0.139409
C20   C     C_R   0.374328 0.987530 0.560895 -0.193331
C21   C     C_R   0.448804 0.026894 0.500710 0.090264
C22   C     C_R   0.454585 0.132214 0.469463 0.095138
C23   C     C_R   0.556343 0.691578 0.489324 0.867788
C24   C     C_R   0.517614 0.965430 0.470279 0.080493
C25   C     C_R   0.578604 0.005465 0.400208 0.178929
C26   C     C_R   0.571363 0.106182 0.361934 -0.252104
C27   C     C_R   0.509684 0.168803 0.395856 -0.208485
C28   C     C_R   0.528110 0.865171 0.508250 -0.246872
C29   C     C_R   0.645088 0.840151 0.401909 -0.180174
C30   C     C_R   0.406075 0.198796 0.513538 -0.117426
C31   C     C_R   0.138633 0.648286 0.617902 -0.244644
C32   C     C_R   0.757755 0.379482 0.395759 0.038431
C33   C     C_R   0.853069 0.352583 0.374394 -0.256390
C34   C     C_R   0.565510 0.490895 0.664336 0.869328
C35   C     C_R   0.950676 0.397550 0.414818 -0.162529
C36   C     C_R   0.952818 0.470208 0.476927 0.015267
C37   C     C_R   0.853384 0.494805 0.496273 0.146357
C38   C     C_R   0.048964 0.520194 0.519435 -0.092456
C39   C     C_R   0.043995 0.595331 0.578583 0.046379
C40   C     C_R   0.944699 0.617168 0.596932 0.548235
C41   C     C_R   0.850922 0.566977 0.556448 -0.313666
C42   C     C_R   0.150781 0.499307 0.505158 -0.009742
C43   C     C_R   0.236524 0.625910 0.598761 -0.020060
C44   C     C_R   0.407828 0.545963 0.239740 -0.061209
C45   C     C_R   0.611140 0.508605 0.756014 -0.078229
C46   C     C_R   0.287193 0.617938 0.115775 -0.186523
C47   C     C_R   0.307265 0.579644 0.205264 -0.190771
C48   C     C_R   0.487604 0.551597 0.184228 -0.251891
H1    H     H_    0.272438 0.693654 0.945964 0.148666
H2    H     H_    0.847982 0.524319 0.895256 0.142218
H3    H     H_    0.688320 0.790179 0.371586 0.158003
H4    H     H_    0.614390 0.137011 0.306451 0.141013
H5    H     H_    0.690115 0.972591 0.314124 0.138041
H6    H     H_    0.489322 0.832870 0.565313 0.140282
H7    H     H_    0.294728 0.209131 0.607279 0.160360
H8    H     H_    0.357485 0.906470 0.580913 0.129734
H9    H     H_    0.259768 0.022340 0.641490 0.149808
H10   H     H_    0.504388 0.245946 0.363228 0.152625
H11   H     H_    0.310675 0.667636 0.626140 0.123256
H12   H     H_    0.458563 0.530195 0.792412 0.159298
H13   H     H_    0.137184 0.706911 0.662010 0.190156
H14   H     H_    0.163189 0.442781 0.463051 0.120818
H15   H     H_    0.681422 0.345444 0.364387 0.125821
H16   H     H_    0.022309 0.374582 0.395383 0.131929
H17   H     H_    0.851347 0.297404 0.326597 0.145647
H18   H     H_    0.777329 0.586954 0.572957 0.236422
H19   H     H_    0.775244 0.483771 0.743804 0.169270
H20   H     H_    0.816827 0.567269 0.042175 0.145035
H21   H     H_    0.208798 0.642914 0.089967 0.137086
H22   H     H_    0.244773 0.577401 0.247441 0.158403
H23   H     H_    0.562639 0.520961 0.210749 0.157747
H24   H     H_    0.691797 0.590838 0.142157 0.148389
N1    N     N_R   0.239390 0.551900 0.544730 -0.097653
N2    N     N_R   0.759950 0.448600 0.455730 -0.112336
O1    O     O_R   0.374950 0.371210 0.521360 -0.614509
O2    O     O_R   0.542050 0.338030 0.492790 -0.604221
O3    O     O_R   0.368720 0.526070 0.390200 -0.610730
O4    O     O_R   0.535820 0.492890 0.361630 -0.628989
O5    O     O_R   0.457950 0.661970 0.507210 -0.611585
O6    O     O_R   0.625050 0.628790 0.478640 -0.630419
O7    O     O_R   0.464180 0.507110 0.638370 -0.613959
O8    O     O_R   0.631280 0.473930 0.609800 -0.625680
Zn1   Zn    Zn3+2 0.388420 0.522150 0.519080 0.936570
Zn2   Zn    Zn3+2 0.611580 0.477850 0.480920 0.930964
F1    F     F_    0.937960 0.687539 0.653969 -0.676899
C49   C     C_3   0.407698 0.721941 0.822260 -0.421378
C50   C     C_3   0.497303 0.810119 0.812883 -0.826572
H25   H     H_    0.503491 0.859561 0.868144 0.263377
H26   H     H_    0.575927 0.779968 0.813428 0.268032
H27   H     H_    0.478897 0.857907 0.748614 0.239760
H28   H     H_    0.401483 0.674912 0.766323 0.194933
H29   H     H_    0.330148 0.756647 0.812984 0.202335

loop_
_geom_bond_atom_site_label_1
_geom_bond_atom_site_label_2
_ccdc_geom_bond_type
C43   N1    A    
C50   H25   S    
C17   C29   A    
C15   H12   S    
C31   H13   S    
C35   C36   A    
C4    C8    A    
O2    Zn2   S    
C37   N2    A    
C33   H17   S    
C19   H9    S    
C26   C27   A    
C17   C23   S    
C31   C43   A    
C36   C37   A    
C5    C11   A    
C3    C7    A    
C49   H28   S    
C32   N2    A    
C5    C6    A    
O3    Zn1   S    
C18   C19   A    
C16   H5    S    
C46   H21   S    
C11   C15   A    
C19   C20   A    
C8    C9    A    
C12   O4    A    
C14   H19   S    
C35   H16   S    
C18   C30   A    
C34   O7    A    
C23   O6    A    
C9    C10   A    
C42   H14   S    
C44   C47   A    
O6    Zn2   S    
C21   C22   A    
C17   C28   A    
O7    Zn1   S    
C14   C45   A    
C8    H24   S    
C1    O1    A    
C24   C25   A    
C7    H1    S    
C39   C40   A    
C28   H6    S    
C49   C50   S    
C2    C48   A    
C25   C26   A    
C27   H10   S    
C40   F1    S    
C2    C4    A    
C47   H22   S    
C26   H4    S    
C12   O3    A    
C34   C45   S    
C6    C7    A    
C18   H7    S    
C40   C41   A    
O8    Zn2   S    
C22   C27   A    
C50   H26   S    
C50   H27   S    
C15   C45   A    
C48   H23   S    
C29   H3    S    
C16   C25   A    
C46   C47   A    
C42   N1    A    
C22   C30   A    
C1    O2    A    
C24   C28   A    
C32   H15   S    
N2    Zn2   S    
C4    C5    A    
C10   C13   A    
C38   C42   A    
C41   H18   S    
C43   H11   S    
C3    C46   A    
C6    C49   S    
C32   C33   A    
C36   C38   A    
C2    C3    A    
C16   C29   A    
C9    H20   S    
C12   C44   S    
C49   H29   S    
O5    Zn1   S    
O1    Zn1   S    
C38   C39   A    
C1    C30   S    
C33   C35   A    
C31   C39   A    
C20   H8    S    
C37   C41   A    
C10   C11   A    
C13   H2    S    
O4    Zn2   S    
C20   C21   A    
C21   C24   A    
C34   O8    A    
C23   O5    A    
C13   C14   A    
N1    Zn1   S    
C44   C48   A    
