data_mof_unit_pretest_177.cif
_audit_creation_date              2012-12-10T19:00:43-0500
_audit_creation_method            fapswitch 2.2
_symmetry_space_group_name_H-M    P1
_symmetry_Int_Tables_number       1
_space_group_crystal_system       triclinic
_cell_length_a                    15.013031
_cell_length_b                    10.829784
_cell_length_c                    9.557061
_cell_angle_alpha                 90.032198
_cell_angle_beta                  90.373578
_cell_angle_gamma                 90.196286
_cell_volume                      1553.81990227

loop_
_atom_site_label
_atom_site_type_symbol
_atom_type_description
_atom_site_fract_x
_atom_site_fract_y
_atom_site_fract_z
_atom_type_partial_charge
C1    C     C_R   0.497386 0.262350 0.499893 0.816935
C2    C     C_R   0.906719 0.607140 0.461785 0.040729
C3    C     C_R   0.956629 0.272455 0.524691 0.308746
C4    C     C_R   0.049223 0.276662 0.530732 -0.206317
C5    C     C_R   0.094744 0.388051 0.516597 0.070990
C6    C     C_R   0.047469 0.498046 0.490139 0.062101
C7    C     C_R   0.094498 0.609473 0.464524 0.069102
C8    C     C_R   0.047196 0.718338 0.435450 0.139191
C9    C     C_R   0.954516 0.716305 0.434037 -0.117705
C10   C     C_R   0.187485 0.389788 0.521963 -0.202431
C11   C     C_R   0.233170 0.499608 0.498025 -0.057986
C12   C     C_R   0.329165 0.499838 0.499561 0.796539
C13   C     C_R   0.187725 0.608446 0.468060 -0.200926
C14   C     C_R   0.471407 0.063110 0.621316 0.109812
C15   C     C_R   0.487491 0.129225 0.498305 -0.121413
C16   C     C_R   0.490527 0.064394 0.370766 -0.151904
C17   C     C_R   0.491442 0.935723 0.370462 -0.154474
C18   C     C_R   0.489978 0.870741 0.497759 -0.077339
C19   C     C_R   0.474421 0.936041 0.620797 0.087730
C20   C     C_3   0.520528 0.930464 0.759163 -0.478794
C21   C     C_3   0.514526 0.070357 0.762624 0.008022
C22   C     C_R   0.576525 0.522508 0.074816 0.215005
C23   C     C_R   0.498681 0.737667 0.499746 0.844587
C24   C     C_R   0.426029 0.467834 0.073451 -0.039980
C25   C     C_R   0.425859 0.468591 0.925028 -0.035969
C26   C     C_R   0.577172 0.521151 0.927375 0.255764
C27   C     C_3   0.633537 0.635507 0.924809 0.045858
C28   C     C_3   0.631478 0.636634 0.083489 -0.464558
C29   C     C_R   0.671045 0.498946 0.500280 0.908666
C30   C     C_R   0.813265 0.606351 0.461901 0.198091
C31   C     C_R   0.767822 0.498158 0.499779 -0.148227
C32   C     C_R   0.813701 0.389199 0.534798 0.118895
C33   C     C_R   0.907009 0.384010 0.516552 0.000037
C34   C     C_R   0.953532 0.496299 0.489344 -0.046390
Cu1   Cu    Cu3+1 0.500000 0.499980 0.640670 0.997466
Cu2   Cu    Cu3+1 0.500000 0.500020 0.359330 0.982007
H1    H     H_    0.498246 0.888082 0.271456 0.172587
H2    H     H_    0.479720 0.882837 0.839458 0.216524
H3    H     H_    0.590258 0.897399 0.749914 0.214454
H4    H     H_    0.580412 0.116835 0.761856 0.188194
H5    H     H_    0.365747 0.442441 0.127573 0.162277
H6    H     H_    0.365392 0.443794 0.869862 0.169531
H7    H     H_    0.598943 0.714935 0.876323 0.140572
H8    H     H_    0.697007 0.619158 0.134413 0.255071
H9    H     H_    0.594144 0.716208 0.127113 0.197966
H10   H     H_    0.086181 0.191134 0.539845 0.195849
H11   H     H_    0.224412 0.305589 0.542142 0.143670
H12   H     H_    0.226151 0.691295 0.448716 0.161522
H13   H     H_    0.920796 0.802038 0.411616 0.236360
H14   H     H_    0.497223 0.112375 0.271977 0.195845
N1    N     N_R   0.500570 0.500930 0.147930 -0.195430
N2    N     N_R   0.500570 0.500890 0.852020 -0.215144
O1    O     O_R   0.500000 0.319640 0.618810 -0.562689
O2    O     O_R   0.500010 0.319680 0.381230 -0.576972
O3    O     O_R   0.370250 0.499950 0.618800 -0.588036
O4    O     O_R   0.370260 0.499990 0.381220 -0.590175
O5    O     O_R   0.499990 0.680320 0.618770 -0.584671
O6    O     O_R   0.500000 0.680360 0.381190 -0.583913
O7    O     O_R   0.629740 0.500010 0.618780 -0.535153
O8    O     O_R   0.629750 0.500050 0.381200 -0.572521
Br1   Br    Br    0.745722 0.754841 0.422001 -0.485605
I1    I     I_    0.424137 0.134920 0.918497 -0.386451
Br2   Br    Br    0.752931 0.606044 0.855327 -0.423540
I2    I     I_    0.740872 0.250329 0.647258 -0.226629
Br3   Br    Br    0.908923 0.109524 0.493031 -0.393853
I3    I     I_    0.109798 0.890693 0.391706 -0.301499

loop_
_geom_bond_atom_site_label_1
_geom_bond_atom_site_label_2
_ccdc_geom_bond_type
C25   H6    S    
C23   O6    A    
C11   C12   S    
C8    I3    S    
C6    C7    A    
C1    C15   S    
C26   N2    A    
Cu1   O1    S    
C20   H2    S    
C19   C20   S    
C29   O8    A    
C2    C30   A    
Cu1   O5    S    
C6    C34   A    
C32   C33   A    
C2    C34   A    
C24   N1    A    
C7    C13   A    
C17   C18   A    
C21   I1    S    
C25   N2    A    
C5    C10   A    
C29   C31   S    
C4    H10   S    
C4    C5    A    
C24   C25   A    
C24   H5    S    
C11   C13   A    
C26   C27   S    
C12   O4    A    
Cu2   N1    S    
C27   Br2   S    
C1    O2    A    
Cu2   O4    S    
C5    C6    A    
C14   C21   S    
C22   C28   S    
C16   H14   S    
C33   C34   A    
Cu2   O6    S    
C18   C23   S    
C30   C31   A    
C3    Br3   S    
C28   H9    S    
C10   H11   S    
C12   O3    A    
Cu2   O2    S    
C10   C11   A    
C3    C33   A    
Cu1   O3    S    
C15   C16   A    
C27   H7    S    
C7    C8    A    
C9    H13   S    
C20   C21   S    
C32   I2    S    
Cu1   O7    S    
C18   C19   A    
C22   C26   A    
C30   Br1   S    
C27   C28   S    
C23   O5    A    
C20   H3    S    
C1    O1    A    
C14   C15   A    
C22   N1    A    
C17   H1    S    
Cu1   Cu2   S    
C2    C9    A    
C14   C19   A    
C28   H8    S    
C31   C32   A    
C3    C4    A    
C29   O7    A    
C16   C17   A    
Cu1   N2    S    
C8    C9    A    
Cu2   O8    S    
C13   H12   S    
C21   H4    S    
