data_mof_unit_pretest_1291.cif
_audit_creation_date              2012-10-26T21:13:37-0400
_audit_creation_method            fapswitch 2.2
_symmetry_space_group_name_H-M    P1
_symmetry_Int_Tables_number       1
_space_group_crystal_system       triclinic
_cell_length_a                    9.054987
_cell_length_b                    10.853826
_cell_length_c                    9.627289
_cell_angle_alpha                 89.189027
_cell_angle_beta                  89.041261
_cell_angle_gamma                 92.227053
_cell_volume                      945.231218076

loop_
_atom_site_label
_atom_site_type_symbol
_atom_type_description
_atom_site_fract_x
_atom_site_fract_y
_atom_site_fract_z
_atom_type_partial_charge
C1    C     C_R   0.488997 0.262593 0.501221 0.563495
C2    C     C_R   0.628571 0.516520 0.924524 0.126743
C3    C     C_3   0.741416 0.620893 0.917125 0.162245
C4    C     C_R   0.220918 0.499030 0.500607 0.542952
C5    C     C_3   0.750977 0.611650 0.078022 0.520043
C6    C     C_R   0.494230 0.737200 0.499268 0.564948
C7    C     C_R   0.778995 0.499217 0.499244 0.542365
C8    C     C_1   0.065558 0.497863 0.500590 -0.058562
C9    C     C_1   0.934282 0.497912 0.498638 -0.031383
C10   C     C_R   0.507088 0.062447 0.622782 -0.033689
C11   C     C_R   0.470348 0.128553 0.503682 -0.011562
C12   C     C_R   0.428657 0.934023 0.381707 0.250526
C13   C     C_R   0.419453 0.064099 0.386074 0.239709
C14   C     C_3   0.207231 0.142649 0.307597 -0.108013
C15   C     C_3   0.996964 0.632051 0.155131 -0.073268
C16   C     C_3   0.759096 0.828224 0.105205 -0.162375
C17   C     C_3   0.404037 0.906148 0.143825 -0.030534
C18   C     C_2   0.304800 0.836001 0.759737 0.217632
C19   C     C_3   0.193689 0.082794 0.871829 -0.054780
C20   C     C_3   0.651707 0.129293 0.863776 -0.127655
C21   C     C_2   0.236609 0.419008 0.873390 0.266896
C22   C     C_3   0.937255 0.686300 0.774884 -0.115268
C23   C     C_R   0.482905 0.870687 0.498277 -0.034123
C24   C     C_R   0.515601 0.935227 0.619336 -0.162995
C25   C     C_3   0.444915 0.915832 0.760706 -0.049410
C26   C     C_3   0.425461 0.055397 0.762508 0.537505
C27   C     C_R   0.628705 0.515261 0.070036 0.200127
C28   C     C_R   0.376323 0.469199 0.078676 -0.019672
C29   C     C_R   0.375640 0.466520 0.931593 0.143437
Cu1   Cu    Cu3+1 0.499990 0.499980 0.640670 1.054772
Cu2   Cu    Cu3+1 0.500010 0.500020 0.359330 1.047776
H1    H     H_    0.689425 0.704364 0.873933 0.069672
H2    H     H_    0.686954 0.861713 0.022536 0.078641
H3    H     H_    0.873581 0.828144 0.063564 0.081901
H4    H     H_    0.757826 0.895836 0.190491 0.137885
H5    H     H_    0.312171 0.955903 0.098147 0.150088
H6    H     H_    0.423131 0.824500 0.079045 0.173846
H7    H     H_    0.506055 0.966752 0.139564 0.141041
H8    H     H_    0.220462 0.852068 0.683399 0.110637
H9    H     H_    0.245534 0.138205 0.955423 0.190532
H10   H     H_    0.171726 0.986584 0.907744 0.073528
H11   H     H_    0.083904 0.121180 0.853018 0.132421
H12   H     H_    0.525251 0.882889 0.837097 0.101486
H13   H     H_    0.685326 0.199721 0.783410 0.160324
H14   H     H_    0.703128 0.040335 0.841435 0.065254
H15   H     H_    0.695401 0.161954 0.964295 0.141054
H16   H     H_    0.132268 0.453553 0.910099 0.123116
H17   H     H_    0.961478 0.765824 0.843373 0.097487
H18   H     H_    0.865583 0.715051 0.688461 0.113835
H19   H     H_    0.043341 0.658182 0.728836 0.177519
H20   H     H_    0.277276 0.441754 0.137077 0.111446
H21   H     H_    0.157985 0.192587 0.219476 0.116588
H22   H     H_    0.191966 0.198970 0.402131 0.138714
H23   H     H_    0.146310 0.051966 0.319906 0.123511
H24   H     H_    0.088088 0.577144 0.194512 0.138657
H25   H     H_    0.971191 0.698701 0.237765 0.145165
H26   H     H_    0.038738 0.678378 0.058131 0.146899
N1    N     N_R   0.500920 0.500930 0.147930 -0.246290
N2    N     N_R   0.500930 0.500890 0.852020 -0.238932
O1    O     O_R   0.500000 0.319640 0.618810 -0.455202
O2    O     O_3   0.875552 0.550961 0.130293 -0.547285
O3    O     O_3   0.704584 0.712711 0.158472 -0.546996
O4    O     O_3   0.361392 0.864604 0.278393 -0.566515
O5    O     O_2   0.285830 0.752241 0.844804 -0.574373
O6    O     O_3   0.276675 0.090315 0.745613 -0.534507
O7    O     O_3   0.495866 0.117138 0.875799 -0.555607
O8    O     O_2   0.235833 0.333836 0.792677 -0.452823
O9    O     O_3   0.872173 0.584844 0.849492 -0.554334
O10   O     O_R   0.500020 0.319680 0.381230 -0.470836
O11   O     O_R   0.288380 0.499980 0.618770 -0.448761
O12   O     O_R   0.288400 0.500020 0.381190 -0.533270
O13   O     O_R   0.499980 0.680320 0.618770 -0.509075
O14   O     O_R   0.500000 0.680360 0.381190 -0.413662
O15   O     O_R   0.711600 0.499980 0.618810 -0.484990
O16   O     O_R   0.711620 0.500020 0.381230 -0.456939
O17   O     O_3   0.358232 0.127549 0.276858 -0.558735

loop_
_geom_bond_atom_site_label_1
_geom_bond_atom_site_label_2
_ccdc_geom_bond_type
C22   H17   S    
C3    O9    S    
C1    C11   S    
C4    C8    S    
C25   H12   S    
C4    O11   A    
C6    O13   A    
C12   C23   A    
Cu2   N1    S    
C20   O7    S    
C28   C29   A    
C16   H4    S    
Cu1   Cu2   S    
Cu1   O15   S    
C28   H20   S    
Cu2   O14   S    
C20   H13   S    
C5    C27   S    
C14   H21   S    
C29   N2    A    
C8    C9    T    
Cu1   O1    S    
C23   C24   A    
C2    C27   A    
C17   H5    S    
C20   H14   S    
C19   H11   S    
C22   H19   S    
C16   H3    S    
C10   C26   S    
Cu2   O12   S    
C21   O8    D    
C15   H26   S    
C18   C25   S    
C16   O3    S    
Cu1   O11   S    
C7    O15   A    
C26   O7    S    
C24   C25   S    
C10   C11   A    
C1    O1    A    
C12   O4    S    
C2    N2    A    
C7    O16   A    
C10   C24   A    
C25   C26   S    
C21   C29   S    
C1    O10   A    
C14   O17   S    
C18   H8    S    
C16   H2    S    
Cu2   O16   S    
C13   O17   S    
Cu1   N2    S    
C15   O2    S    
C5    O2    S    
C17   H6    S    
C22   O9    S    
C22   H18   S    
C14   H23   S    
C6    O14   A    
C7    C9    S    
C26   O6    S    
C3    C5    S    
C27   N1    A    
Cu1   O13   S    
C28   N1    A    
C15   H25   S    
C2    C3    S    
C17   O4    S    
C11   C13   A    
C18   O5    D    
C6    C23   S    
C5    O3    S    
C19   O6    S    
C17   H7    S    
C3    H1    S    
C19   H9    S    
Cu2   O10   S    
C14   H22   S    
C12   C13   A    
C4    O12   A    
C20   H15   S    
C19   H10   S    
C15   H24   S    
C21   H16   S    
