data_mof_unit_pretest_530.cif
_audit_creation_date              2012-12-10T20:01:02-0500
_audit_creation_method            fapswitch 2.2
_symmetry_space_group_name_H-M    P1
_symmetry_Int_Tables_number       1
_space_group_crystal_system       triclinic
_cell_length_a                    14.839291
_cell_length_b                    14.140848
_cell_length_c                    17.45713
_cell_angle_alpha                 89.549358
_cell_angle_beta                  90.015764
_cell_angle_gamma                 90.282766
_cell_volume                      3663.04890922

loop_
_atom_site_label
_atom_site_type_symbol
_atom_type_description
_atom_site_fract_x
_atom_site_fract_y
_atom_site_fract_z
_atom_type_partial_charge
C1    C     C_R   0.327459 0.499778 0.498726 0.927732
C2    C     C_R   0.672898 0.500200 0.498058 0.924003
C3    C     C_R   0.232025 0.498779 0.486457 -0.150982
C4    C     C_R   0.768889 0.500435 0.484691 -0.168818
C5    C     C_R   0.049217 0.492281 0.457110 -0.076258
C6    C     C_R   0.951913 0.500295 0.453803 -0.070983
C7    C     C_R   0.449149 0.108166 0.441221 0.387715
C8    C     C_R   0.580997 0.895548 0.490508 0.375845
C9    C     C_R   0.549542 0.102638 0.551038 0.388270
C10   C     C_R   0.417684 0.894705 0.495187 0.377103
C11   C     C_R   0.449104 0.207325 0.446687 -0.109834
C12   C     C_R   0.579332 0.796220 0.496237 -0.125861
C13   C     C_R   0.551178 0.202228 0.550346 -0.164231
C14   C     C_R   0.420238 0.794957 0.498329 -0.175743
C15   C     C_R   0.499090 0.053462 0.494576 -0.081008
C16   C     C_R   0.499173 0.946744 0.491550 -0.080232
C17   C     C_R   0.502241 0.500357 0.352877 0.903962
C18   C     C_R   0.501094 0.499666 0.647127 0.956363
C19   C     C_R   0.499476 0.580061 0.851731 -0.284359
C20   C     C_R   0.570585 0.426574 0.154163 -0.280475
C21   C     C_R   0.523162 0.590136 0.150201 -0.271435
C22   C     C_R   0.588947 0.438076 0.843262 -0.286466
C23   C     C_R   0.481008 0.576731 0.773336 0.397503
C24   C     C_R   0.552752 0.421867 0.232513 0.414776
C25   C     C_R   0.500856 0.586064 0.227533 0.422328
C26   C     C_R   0.564199 0.427707 0.766500 0.469760
C27   C     C_R   0.513742 0.500069 0.730325 -0.256808
C28   C     C_R   0.516540 0.501883 0.269784 -0.281079
C29   C     C_R   0.555397 0.512972 0.885265 0.025970
C30   C     C_R   0.557075 0.510655 0.114099 0.019543
C31   C     C_1   0.565961 0.513116 0.965602 -0.011480
C32   C     C_1   0.566394 0.512239 0.033675 -0.014606
C33   C     C_R   0.103457 0.556497 0.415967 0.508128
C34   C     C_R   0.899866 0.420012 0.436682 0.501135
C35   C     C_R   0.911293 0.583087 0.481683 0.472312
C36   C     C_R   0.087281 0.427914 0.509992 0.473865
C37   C     C_R   0.194755 0.562086 0.433587 -0.350126
C38   C     C_R   0.809251 0.419323 0.455174 -0.324193
C39   C     C_R   0.819112 0.583193 0.495226 -0.327115
C40   C     C_R   0.179465 0.429693 0.522323 -0.316670
H1    H     H_    0.468217 0.633300 0.887125 0.152188
H2    H     H_    0.594272 0.364280 0.124628 0.158064
H3    H     H_    0.511590 0.654801 0.117946 0.157574
H4    H     H_    0.631651 0.386096 0.870946 0.147288
H5    H     H_    0.236777 0.614454 0.405168 0.166241
H6    H     H_    0.770573 0.355436 0.445449 0.191467
H7    H     H_    0.787552 0.647255 0.515456 0.179991
H8    H     H_    0.209476 0.378929 0.561449 0.174920
H9    H     H_    0.409428 0.248689 0.406788 0.184593
H10   H     H_    0.642260 0.758125 0.496500 0.165641
H11   H     H_    0.592856 0.239715 0.590905 0.205023
H12   H     H_    0.357694 0.755592 0.498736 0.163068
N1    N     N_R   0.500000 0.252470 0.500000 -0.146408
N2    N     N_R   0.500000 0.747530 0.500000 -0.118712
O1    O     O_R   0.369060 0.579480 0.500010 -0.624991
O2    O     O_R   0.630940 0.420520 0.499990 -0.613135
O3    O     O_R   0.630940 0.579480 0.499990 -0.638308
O4    O     O_R   0.369060 0.420520 0.500010 -0.622866
O5    O     O_R   0.500000 0.579510 0.389120 -0.560008
O6    O     O_R   0.500000 0.420490 0.610880 -0.578296
O7    O     O_R   0.500000 0.579510 0.610880 -0.593980
O8    O     O_R   0.500000 0.420490 0.389120 -0.578556
Zn1   Zn    Zn3+2 0.500000 0.606140 0.500000 0.965348
Zn2   Zn    Zn3+2 0.500000 0.393860 0.500000 0.964676
O9    O     O_3   0.419660 0.638756 0.740900 -0.595371
C41   C     C_3   0.453171 0.732340 0.743845 0.155902
H13   H     H_    0.513841 0.740186 0.706746 0.151251
H14   H     H_    0.470344 0.754541 0.803051 0.116703
C42   C     C_3   0.380567 0.798566 0.714638 -0.869143
H15   H     H_    0.318434 0.789997 0.749511 0.260298
H16   H     H_    0.403890 0.872930 0.718772 0.185889
H17   H     H_    0.364990 0.781618 0.654221 0.249491
O10   O     O_3   0.566498 0.337463 0.271375 -0.588094
C43   C     C_3   0.659512 0.327704 0.286519 0.128796
H18   H     H_    0.684758 0.387853 0.321503 0.127165
H19   H     H_    0.699004 0.324122 0.232383 0.122207
C44   C     C_3   0.675105 0.236389 0.331159 -0.850040
H20   H     H_    0.637701 0.237765 0.386163 0.268350
H21   H     H_    0.652048 0.174924 0.297063 0.236879
H22   H     H_    0.748009 0.228054 0.343536 0.214324
O11   O     O_3   0.468241 0.666407 0.262334 -0.579366
C45   C     C_3   0.374566 0.671691 0.249197 0.083127
H23   H     H_    0.339403 0.606927 0.270825 0.112435
H24   H     H_    0.360086 0.681268 0.187012 0.132894
C46   C     C_3   0.337341 0.756470 0.291572 -0.775173
H25   H     H_    0.374755 0.821333 0.274334 0.257975
H26   H     H_    0.264864 0.765768 0.277839 0.203216
H27   H     H_    0.344739 0.745558 0.354210 0.259169
O12   O     O_3   0.592921 0.350024 0.725240 -0.613956
C47   C     C_3   0.555631 0.265396 0.756268 0.107098
H28   H     H_    0.568490 0.256894 0.818642 0.124407
H29   H     H_    0.590139 0.205235 0.728757 0.176567
C48   C     C_3   0.454495 0.256545 0.740040 -0.888870
H30   H     H_    0.441622 0.258551 0.677465 0.270850
H31   H     H_    0.428800 0.188470 0.763621 0.206069
H32   H     H_    0.416844 0.314630 0.767764 0.249381
O13   O     O_3   0.064880 0.618778 0.364019 -0.559168
C49   C     C_3   0.096636 0.598874 0.289651 0.079182
H33   H     H_    0.090761 0.522114 0.276355 0.116137
H34   H     H_    0.168044 0.621459 0.283181 0.132261
C50   C     C_3   0.040568 0.653404 0.231508 -0.807594
H35   H     H_    0.046247 0.730522 0.242248 0.264133
H36   H     H_    0.065065 0.638647 0.172722 0.197279
H37   H     H_    0.968734 0.631575 0.235947 0.252310
O14   O     O_3   0.938943 0.338663 0.409015 -0.559732
C51   C     C_3   0.936562 0.342465 0.328288 0.073506
H38   H     H_    0.978793 0.402031 0.306373 0.134231
H39   H     H_    0.866314 0.350891 0.306775 0.117218
C52   C     C_3   0.973792 0.250695 0.296750 -0.794981
H40   H     H_    0.932151 0.189977 0.317013 0.254909
H41   H     H_    0.972500 0.252915 0.233162 0.196311
H42   H     H_    0.044403 0.240826 0.316256 0.266034
O15   O     O_3   0.960748 0.665323 0.491618 -0.556987
C53   C     C_3   0.983946 0.674284 0.569597 0.090709
H43   H     H_    0.024551 0.612878 0.589472 0.110840
H44   H     H_    0.922597 0.680786 0.605886 0.131580
C54   C     C_3   0.041240 0.762880 0.579467 -0.776500
H45   H     H_    0.002802 0.826238 0.560883 0.259439
H46   H     H_    0.060321 0.770820 0.640599 0.194067
H47   H     H_    0.103583 0.757661 0.544536 0.260050
O16   O     O_3   0.035114 0.359972 0.546622 -0.558370
C55   C     C_3   0.012538 0.392174 0.620410 0.073604
H48   H     H_    0.973127 0.458788 0.616973 0.113496
H49   H     H_    0.074073 0.403700 0.655771 0.132159
C56   C     C_3   0.953994 0.318049 0.660027 -0.759163
H50   H     H_    0.991272 0.250384 0.665227 0.252925
H51   H     H_    0.935465 0.342545 0.718189 0.194933
H52   H     H_    0.891414 0.306155 0.626418 0.267766
O17   O     O_3   0.396799 0.066425 0.385333 -0.545267
C57   C     C_3   0.450002 0.051054 0.319627 0.097803
H53   H     H_    0.488062 0.984006 0.326559 0.134457
H54   H     H_    0.498179 0.110223 0.307756 0.139302
C58   C     C_3   0.388499 0.042251 0.250338 -0.792914
H55   H     H_    0.337080 0.986283 0.260484 0.261985
H56   H     H_    0.428795 0.023917 0.199010 0.199138
H57   H     H_    0.353706 0.110446 0.239597 0.253820
O18   O     O_3   0.663390 0.941501 0.488642 -0.554517
C59   C     C_3   0.684829 0.963946 0.411878 0.097520
H58   H     H_    0.634168 0.012708 0.386488 0.111911
H59   H     H_    0.689006 0.898702 0.376668 0.137163
C60   C     C_3   0.775863 0.013744 0.409435 -0.762375
H60   H     H_    0.773336 0.079595 0.443650 0.267557
H61   H     H_    0.793337 0.032372 0.349311 0.192646
H62   H     H_    0.828791 0.966645 0.433227 0.263411
O19   O     O_3   0.602114 0.055600 0.604457 -0.551825
C61   C     C_3   0.546175 0.016402 0.662079 0.101743
H63   H     H_    0.506705 0.955870 0.639772 0.132110
H64   H     H_    0.498825 0.069645 0.685403 0.117761
C62   C     C_3   0.604515 0.979537 0.727281 -0.833093
H65   H     H_    0.650360 0.923770 0.705913 0.266798
H66   H     H_    0.561119 0.948841 0.773043 0.193765
H67   H     H_    0.645299 0.038037 0.751698 0.248072
O20   O     O_3   0.335972 0.941014 0.489634 -0.545342
C63   C     C_3   0.290960 0.936821 0.560676 0.071134
H68   H     H_    0.335669 0.960373 0.608232 0.117573
H69   H     H_    0.265592 0.863971 0.572190 0.136364
C64   C     C_3   0.210290 0.002627 0.557896 -0.745274
H70   H     H_    0.163359 0.980570 0.511707 0.264032
H71   H     H_    0.174036 0.999932 0.613518 0.193929
H72   H     H_    0.233152 0.076379 0.546692 0.259226

loop_
_geom_bond_atom_site_label_1
_geom_bond_atom_site_label_2
_ccdc_geom_bond_type
C41   H14   S    
C64   H70   S    
C22   C29   A    
O10   C43   S    
C2    C4    S    
C54   H46   S    
O13   C49   S    
C2    O3    A    
C62   H65   S    
C20   C30   A    
C46   H25   S    
C25   C28   A    
C7    C11   A    
C26   C27   A    
C50   H35   S    
C43   H19   S    
C48   H32   S    
O11   C45   S    
O15   C53   S    
C60   H61   S    
C61   H64   S    
O19   C61   S    
C5    C6    S    
N1    Zn2   S    
C24   O10   S    
C46   H27   S    
C41   C42   S    
N2    Zn1   S    
C15   C16   S    
C49   H33   S    
C5    C36   A    
C6    C35   A    
O7    Zn1   S    
C50   H36   S    
C42   H16   S    
C9    C13   A    
C48   H31   S    
O8    Zn2   S    
C21   H3    S    
C47   H29   S    
C22   H4    S    
C20   C24   A    
C12   H10   S    
C43   C44   S    
C5    C33   A    
C58   H57   S    
O2    Zn2   S    
C35   O15   S    
C23   C27   A    
C21   C30   A    
C63   H69   S    
C11   N1    A    
C7    C15   A    
C41   H13   S    
C64   H71   S    
C13   H11   S    
C54   H47   S    
C25   O11   S    
C34   O14   S    
C62   H66   S    
C1    O4    A    
C10   O20   S    
O3    Zn1   S    
C13   N1    A    
C46   H26   S    
O4    Zn2   S    
C14   H12   S    
C38   H6    S    
C43   H18   S    
C36   C40   A    
C63   C64   S    
C10   C14   A    
C52   H42   S    
O12   C47   S    
C19   C23   A    
C44   H20   S    
C33   C37   A    
C6    C34   A    
O1    Zn1   S    
C8    O18   S    
C26   O12   S    
C42   H17   S    
C57   H54   S    
C11   H9    S    
C17   O8    A    
C56   H52   S    
C61   C62   S    
C53   H44   S    
C31   C32   T    
C4    C39   A    
C8    C12   A    
C63   H68   S    
C44   H21   S    
C48   H30   S    
C56   H51   S    
O16   C55   S    
C59   H59   S    
C17   O5    A    
C18   O6    A    
C14   N2    A    
C4    C38   A    
C3    C40   A    
O9    C41   S    
C50   H37   S    
C45   H24   S    
C22   C26   A    
C56   H50   S    
C62   H67   S    
C57   C58   S    
C37   H5    S    
C19   C29   A    
C47   C48   S    
C39   H7    S    
C61   H63   S    
O14   C51   S    
C44   H22   S    
C40   H8    S    
C21   C25   A    
C34   C38   A    
C17   C28   S    
C18   C27   S    
C24   C28   A    
C59   C60   S    
C20   H2    S    
C18   O7    A    
C53   H43   S    
C60   H62   S    
C64   H72   S    
C45   C46   S    
O18   C59   S    
O5    Zn1   S    
C49   C50   S    
O6    Zn2   S    
C23   O9    S    
C55   C56   S    
C52   H41   S    
C57   H53   S    
O17   C57   S    
C29   C31   S    
C2    O2    A    
C60   H60   S    
C30   C32   S    
C47   H28   S    
C58   H55   S    
C51   H39   S    
C35   C39   A    
C9    O19   S    
C36   O16   S    
C33   O13   S    
C1    O1    A    
C42   H15   S    
C49   H34   S    
C7    O17   S    
C53   C54   S    
C59   H58   S    
C3    C37   A    
C8    C16   A    
C45   H23   S    
C51   H38   S    
C52   H40   S    
C58   H56   S    
C10   C16   A    
C1    C3    S    
C55   H48   S    
C54   H45   S    
C55   H49   S    
C12   N2    A    
C19   H1    S    
C9    C15   A    
O20   C63   S    
C51   C52   S    
