data_mof_unit_pretest_852.cif
_audit_creation_date              2013-03-05T15:46:41-0500
_audit_creation_method            fapswitch 2.2
_symmetry_space_group_name_H-M    P1
_symmetry_Int_Tables_number       1
_space_group_crystal_system       triclinic
_cell_length_a                    15.897488
_cell_length_b                    11.059298
_cell_length_c                    9.994984
_cell_angle_alpha                 112.111702
_cell_angle_beta                  98.658851
_cell_angle_gamma                 91.581619
_cell_volume                      1602.64180958

loop_
_atom_site_label
_atom_site_type_symbol
_atom_site_description
_atom_site_fract_x
_atom_site_fract_y
_atom_site_fract_z
_atom_type_partial_charge
O1    O     O_R   0.507840 0.332340 0.577400 -0.613830
O2    O     O_R   0.492160 0.667660 0.422600 -0.608935
O3    O     O_R   0.483020 0.295500 0.332650 -0.536930
O4    O     O_R   0.516980 0.704500 0.667350 -0.518813
C1    C     C_R   0.493015 0.253647 0.439244 0.756968
C2    C     C_R   0.507601 0.746262 0.560770 0.759774
O5    O     O_R   0.391490 0.518400 0.622350 -0.564193
O6    O     O_R   0.608510 0.481600 0.377650 -0.568068
O7    O     O_R   0.366660 0.481570 0.377600 -0.570933
O8    O     O_R   0.633340 0.518430 0.622400 -0.581287
C3    C     C_R   0.340293 0.499927 0.500327 0.819605
C4    C     C_R   0.659711 0.500312 0.499718 0.820146
Cu1   Cu    Cu3+1 0.514700 0.521810 0.644910 1.031685
Cu2   Cu    Cu3+1 0.485300 0.478190 0.355090 1.023864
C5    C     C_3   0.973307 0.405151 0.540558 -0.174215
C6    C     C_3   0.026709 0.595727 0.459660 -0.174824
C7    C     C_3   0.017310 0.383920 0.406351 -0.175613
C8    C     C_3   0.982698 0.616955 0.593862 -0.176067
C9    C     C_1   0.251011 0.500060 0.501156 -0.086513
C10   C     C_1   0.748996 0.500460 0.498960 -0.088492
C11   C     C_3   0.039966 0.521398 0.634318 0.330775
C12   C     C_3   0.960046 0.479482 0.365896 0.329887
C13   C     C_3   0.084265 0.500353 0.501309 -0.051630
C14   C     C_3   0.915751 0.500520 0.498907 -0.050974
C15   C     C_1   0.175743 0.500178 0.501469 0.076583
C16   C     C_1   0.824272 0.500548 0.498716 0.076672
H1    H     H_    0.457160 0.864393 0.386598 0.206534
H2    H     H_    0.540229 0.138069 0.617307 0.209155
C17   C     C_2   0.485817 0.112000 0.402584 0.168652
C18   C     C_2   0.517179 0.887733 0.597858 0.173244
C19   C     C_2   0.509192 0.068808 0.510501 -0.200772
C20   C     C_2   0.491289 0.932346 0.491938 -0.192764
N1    N     N_2   0.463210 0.445420 0.137360 -0.283882
N2    N     N_2   0.536790 0.554580 0.862640 -0.265324
C21   C     C_2   0.504603 0.514567 0.082093 -0.042600
C22   C     C_2   0.488772 0.495681 0.920234 -0.034145
C23   C     C_1   0.035749 0.256775 0.302576 0.365249
N3    N     N_1   0.050296 0.156586 0.220783 -0.185169
C24   C     C_1   0.964233 0.744079 0.697644 0.367253
N4    N     N_1   0.949662 0.844249 0.779442 -0.182274
C25   C     C_1   0.944659 0.301746 0.586496 0.371331
N5    N     N_1   0.922076 0.220293 0.622746 -0.191728
C26   C     C_1   0.055350 0.699148 0.413741 0.370927
N6    N     N_1   0.077922 0.780616 0.377506 -0.192904
N7    N     N_R   0.917917 0.456403 0.217239 0.142922
O9    O     O_R   0.963334 0.439824 0.114845 -0.279201
O10   O     O_R   0.835237 0.452777 0.186094 -0.321414
N8    N     N_R   0.082089 0.544532 0.782986 0.141510
O11   O     O_R   0.036663 0.561021 0.885352 -0.279344
O12   O     O_R   0.164787 0.548557 0.814232 -0.320553
N9    N     N_R   0.557499 0.973568 0.743425 0.144809
O13   O     O_R   0.623710 0.939217 0.809735 -0.296474
O14   O     O_R   0.520221 0.074144 0.818261 -0.338736
N10   N     N_R   0.452045 0.023820 0.254536 0.142318
O15   O     O_R   0.386664 0.052348 0.180309 -0.300543
O16   O     O_R   0.493916 0.926027 0.187029 -0.324002
C27   C     C_1   0.410719 0.420538 0.829694 0.385941
N11   N     N_1   0.348083 0.359211 0.758761 -0.236163
C28   C     C_1   0.562537 0.624896 0.183498 0.409445
N12   N     N_1   0.609647 0.713097 0.263189 -0.234968
C29   C     C_1   0.622561 0.591955 0.925657 0.500168
N13   N     N_1   0.694024 0.622879 0.976885 -0.218290
C30   C     C_1   0.422440 0.321834 0.049198 0.514841
N14   N     N_1   0.388241 0.218923 0.977248 -0.177693

loop_
_geom_bond_atom_site_label_1
_geom_bond_atom_site_label_2
_geom_bond_distance
_ccdc_geom_bond_type
Cu1   N2    2.039525 S    
O5    Cu1   1.935309 S    
O5    C3    1.302306 A    
O7    Cu2   1.932521 S    
H2    C19   1.083847 S    
C23   N3    1.157009 T    
C8    C14   1.546538 S    
C8    C11   1.540487 S    
C25   N5    1.156995 T    
C1    C17   1.465164 S    
C7    C12   1.540499 S    
O6    C4    1.302124 A    
C8    C24   1.468102 S    
C11   N8    1.458301 S    
C4    C10   1.420526 S    
Cu2   N1    2.039525 S    
N8    O12   1.300228 A    
C28   N12   1.158429 T    
C17   C19   1.344127 D    
C7    C23   1.468100 S    
Cu1   Cu2   2.714810 S    
C18   C20   1.344200 D    
O7    C3    1.301396 A    
C6    C26   1.468167 S    
C3    C9    1.420672 S    
C27   N11   1.158592 T    
C7    C13   1.546599 S    
O3    Cu2   1.945788 S    
C10   C16   1.197041 T    
C26   N6    1.156995 T    
O2    C2    1.305943 A    
O1    C1    1.306033 A    
O8    C4    1.301515 A    
C12   C14   1.541259 S    
C21   C28   1.445753 S    
N8    O11   1.300332 A    
C2    C18   1.463448 S    
C18   N9    1.440375 S    
C14   C16   1.454009 S    
C6    C13   1.546669 S    
N2    C22   1.313601 D    
C13   C15   1.454084 S    
C11   C13   1.541267 S    
C29   N13   1.158182 T    
O2    Cu2   1.938745 S    
N10   O16   1.301399 A    
N1    C30   1.391790 S    
O4    C2    1.302579 A    
O1    Cu1   1.938742 S    
C17   N10   1.440288 S    
C9    C15   1.197082 T    
C30   N14   1.157591 T    
O3    C1    1.303419 A    
C5    C11   1.540373 S    
C12   N7    1.458362 S    
N9    O13   1.301190 A    
C5    C25   1.468180 S    
C6    C8    1.548691 S    
C22   C27   1.445010 S    
N7    O10   1.300245 A    
C24   N4    1.157010 T    
C5    C7    1.548646 S    
N10   O15   1.300938 A    
C5    C14   1.546635 S    
C6    C12   1.540421 S    
O6    Cu2   1.935309 S    
N1    C21   1.312492 D    
H1    C20   1.085129 S    
N7    O9    1.300329 A    
O8    Cu1   1.932521 S    
N2    C29   1.393238 S    
C19   C20   1.463770 S    
O4    Cu1   1.945788 S    
N9    O14   1.300548 A    
C21   C22   1.531109 S    
