data_mof_unit_pretest_972.cif
_audit_creation_date              2012-12-10T18:58:37-0500
_audit_creation_method            fapswitch 2.2
_symmetry_space_group_name_H-M    P1
_symmetry_Int_Tables_number       1
_space_group_crystal_system       triclinic
_cell_length_a                    10.878163
_cell_length_b                    9.789417
_cell_length_c                    17.391058
_cell_angle_alpha                 90.129937
_cell_angle_beta                  89.77402
_cell_angle_gamma                 90.029783
_cell_volume                      1851.96955403

loop_
_atom_site_label
_atom_site_type_symbol
_atom_type_description
_atom_site_fract_x
_atom_site_fract_y
_atom_site_fract_z
_atom_type_partial_charge
C1    C     C_R   0.259041 0.501595 0.496717 0.887854
C2    C     C_R   0.739903 0.502179 0.506337 0.887133
C3    C     C_1   0.595092 0.497130 0.965393 0.080471
C4    C     C_1   0.593816 0.500808 0.033798 0.079425
C5    C     C_R   0.057441 0.385906 0.498603 0.053979
C6    C     C_R   0.934726 0.640350 0.510173 0.049758
C7    C     C_R   0.938336 0.390658 0.527253 0.062813
C8    C     C_R   0.063515 0.639322 0.501532 0.048948
C9    C     C_R   0.502628 0.499807 0.353049 0.892313
C10   C     C_R   0.502971 0.500105 0.646919 0.883895
C11   C     C_R   0.872148 0.511929 0.516691 -0.155358
C12   C     C_R   0.125106 0.509287 0.496065 -0.158755
C13   C     C_R   0.607873 0.611773 0.841604 0.181271
C14   C     C_R   0.605603 0.386906 0.157772 0.176746
C15   C     C_R   0.526499 0.619640 0.149518 0.180388
C16   C     C_R   0.532229 0.377477 0.849396 0.167165
C17   C     C_R   0.577791 0.614623 0.764161 -0.239686
C18   C     C_R   0.576184 0.384657 0.235454 -0.228324
C19   C     C_R   0.499289 0.616996 0.227545 -0.236311
C20   C     C_R   0.504066 0.380891 0.771699 -0.236350
C21   C     C_R   0.525036 0.499808 0.729164 -0.114459
C22   C     C_R   0.522974 0.499379 0.270516 -0.115515
C23   C     C_R   0.523366 0.072331 0.565980 -0.108480
C24   C     C_R   0.475044 0.927714 0.434253 -0.087736
C25   C     C_R   0.475682 0.071784 0.434176 -0.102845
C26   C     C_R   0.523954 0.928235 0.565917 -0.089353
C27   C     C_R   0.583455 0.493545 0.884423 0.007879
C28   C     C_R   0.579721 0.504251 0.114691 0.007251
H1    H     H_    0.597701 0.705785 0.731202 0.166804
H2    H     H_    0.597399 0.294196 0.268621 0.175955
H3    H     H_    0.459001 0.706422 0.254405 0.167891
H4    H     H_    0.464990 0.290985 0.744786 0.175668
H5    H     H_    0.541575 0.126994 0.618711 0.145127
H6    H     H_    0.454853 0.873164 0.381715 0.137433
H7    H     H_    0.456514 0.126029 0.381522 0.149922
H8    H     H_    0.543602 0.874111 0.618518 0.137137
N1    N     N_R   0.500000 0.857200 0.500000 -0.072473
N2    N     N_R   0.500000 0.142800 0.500000 -0.078034
O1    O     O_R   0.316770 0.614620 0.500000 -0.628633
O2    O     O_R   0.683230 0.385380 0.500000 -0.609904
O3    O     O_R   0.683230 0.614620 0.500000 -0.631944
O4    O     O_R   0.316770 0.385380 0.500000 -0.612912
O5    O     O_R   0.500010 0.614710 0.389120 -0.629380
O6    O     O_R   0.499990 0.385290 0.610880 -0.623586
O7    O     O_R   0.499990 0.614710 0.610880 -0.633391
O8    O     O_R   0.500010 0.385290 0.389120 -0.624574
Zn1   Zn    Zn3+2 0.500000 0.653120 0.500000 0.923082
Zn2   Zn    Zn3+2 0.500000 0.346880 0.500000 0.937863
I1    I     I_    0.688817 0.789279 0.890193 -0.276458
I2    I     I_    0.688608 0.210136 0.109383 -0.266571
I3    I     I_    0.482007 0.799574 0.087648 -0.252816
I4    I     I_    0.491479 0.195449 0.910517 -0.259703
C29   C     C_3   0.103236 0.251557 0.463889 -0.415566
C30   C     C_3   0.133798 0.265619 0.377936 -0.313845
C31   C     C_3   0.157357 0.126122 0.341216 -0.866054
H9    H     H_    0.230825 0.071010 0.372499 0.249875
H10   H     H_    0.072204 0.063410 0.342450 0.261467
H11   H     H_    0.186435 0.139662 0.280436 0.267805
H12   H     H_    0.055574 0.314886 0.347781 0.227013
H13   H     H_    0.216525 0.330398 0.369610 0.227413
H14   H     H_    0.181399 0.209049 0.496143 0.234420
H15   H     H_    0.031521 0.172427 0.468085 0.187803
C32   C     C_3   0.867914 0.779606 0.513981 -0.358072
C33   C     C_3   0.834661 0.829810 0.432305 -0.303671
C34   C     C_3   0.794918 0.978784 0.432154 -0.885606
H16   H     H_    0.729090 0.999184 0.479311 0.274275
H17   H     H_    0.875735 0.045094 0.439863 0.242768
H18   H     H_    0.751383 0.004382 0.376369 0.263084
H19   H     H_    0.914571 0.818600 0.392819 0.204954
H20   H     H_    0.759604 0.767870 0.407163 0.256792
H21   H     H_    0.788411 0.780379 0.553888 0.209707
H22   H     H_    0.922021 0.858029 0.544794 0.184105
C35   C     C_3   0.889007 0.271993 0.575564 -0.424740
C36   C     C_3   0.842034 0.320379 0.654604 -0.337296
C37   C     C_3   0.809482 0.199810 0.706365 -0.814530
H23   H     H_    0.739906 0.133602 0.678397 0.246854
H24   H     H_    0.892832 0.138227 0.718658 0.263930
H25   H     H_    0.771164 0.238135 0.761625 0.269435
H26   H     H_    0.914169 0.382553 0.683306 0.228204
H27   H     H_    0.759040 0.384943 0.648012 0.222198
H28   H     H_    0.816883 0.214253 0.544621 0.229165
H29   H     H_    0.963715 0.198054 0.587313 0.193327
C38   C     C_3   0.130943 0.778466 0.499552 -0.358059
C39   C     C_3   0.170214 0.820904 0.581524 -0.297858
C40   C     C_3   0.202516 0.971755 0.586176 -0.903320
H30   H     H_    0.267635 0.999434 0.539627 0.275602
H31   H     H_    0.117620 0.033195 0.580803 0.240950
H32   H     H_    0.245340 0.994892 0.642576 0.263576
H33   H     H_    0.094413 0.800716 0.623040 0.210232
H34   H     H_    0.250486 0.760897 0.601113 0.255464
H35   H     H_    0.206349 0.783750 0.456813 0.210117
H36   H     H_    0.075643 0.860591 0.473523 0.187458

loop_
_geom_bond_atom_site_label_1
_geom_bond_atom_site_label_2
_ccdc_geom_bond_type
C31   H9    S    
C8    C38   S    
C17   H1    S    
C35   C36   S    
C14   C18   A    
C19   H3    S    
C7    C35   S    
C30   H13   S    
C29   C30   S    
C15   C19   A    
C38   H36   S    
C5    C29   S    
C9    C22   S    
C2    O3    A    
C23   C26   A    
C29   H14   S    
C23   H5    S    
C18   H2    S    
C15   I3    S    
N1    Zn1   S    
N2    Zn2   S    
C8    C12   A    
C16   C27   A    
C40   H31   S    
C9    O8    A    
C36   H27   S    
C1    C12   S    
C39   H34   S    
C2    C11   S    
C35   H28   S    
C4    C28   S    
C30   H12   S    
O7    Zn1   S    
C10   C21   S    
O8    Zn2   S    
C9    O5    A    
C36   C37   S    
C10   O6    A    
C19   C22   A    
C24   C25   A    
C5    C12   A    
C6    C11   A    
C5    C7    A    
C6    C8    A    
C34   H17   S    
C40   H30   S    
C17   C21   A    
C6    C32   S    
C7    C11   A    
C37   H23   S    
C25   N2    A    
C29   H15   S    
C38   C39   S    
C16   C20   A    
C34   H18   S    
C10   O7    A    
C24   N1    A    
O3    Zn1   S    
O4    Zn2   S    
C33   H19   S    
C39   C40   S    
C37   H24   S    
C25   H7    S    
C13   I1    S    
C26   H8    S    
C32   H21   S    
C33   H20   S    
C36   H26   S    
C31   H10   S    
C39   H33   S    
C3    C4    T    
C35   H29   S    
O1    Zn1   S    
C20   H4    S    
C40   H32   S    
O2    Zn2   S    
C30   C31   S    
C18   C22   A    
C16   I4    S    
C26   N1    A    
C23   N2    A    
C38   H35   S    
C13   C17   A    
C33   C34   S    
C3    C27   S    
C15   C28   A    
C14   I2    S    
C32   H22   S    
C37   H25   S    
C24   H6    S    
C1    O1    A    
C32   C33   S    
C2    O2    A    
C1    O4    A    
C20   C21   A    
C34   H16   S    
C31   H11   S    
C13   C27   A    
C14   C28   A    
O5    Zn1   S    
O6    Zn2   S    
