data_mof_unit_pretest_1244.cif
_audit_creation_date              2012-12-10T19:03:07-0500
_audit_creation_method            fapswitch 2.2
_symmetry_space_group_name_H-M    P1
_symmetry_Int_Tables_number       1
_space_group_crystal_system       triclinic
_cell_length_a                    10.731869
_cell_length_b                    10.84679
_cell_length_c                    9.548231
_cell_angle_alpha                 90.78407
_cell_angle_beta                  90.055138
_cell_angle_gamma                 90.529671
_cell_volume                      1111.32230418

loop_
_atom_site_label
_atom_site_type_symbol
_atom_type_description
_atom_site_fract_x
_atom_site_fract_y
_atom_site_fract_z
_atom_type_partial_charge
C1    C     C_R   0.496661 0.262481 0.499093 0.811715
C2    C     C_3   0.878229 0.491872 0.499005 -0.047036
C3    C     C_3   0.929304 0.625312 0.485983 -0.411043
C4    C     C_3   0.928197 0.411963 0.374123 1.104259
C5    C     C_R   0.476852 0.066370 0.623331 -0.003054
C6    C     C_R   0.482937 0.129656 0.497577 -0.042316
C7    C     C_R   0.472452 0.062606 0.371142 -0.175367
C8    C     C_R   0.473816 0.933926 0.372376 -0.199202
C9    C     C_R   0.486005 0.871279 0.499995 -0.041543
C10   C     C_R   0.478664 0.939400 0.624924 -0.000045
C11   C     C_3   0.560110 0.940462 0.752107 0.468558
C12   C     C_R   0.259946 0.495714 0.499936 0.783964
C13   C     C_3   0.556713 0.079891 0.750402 -0.435438
C14   C     C_R   0.604655 0.533059 0.074695 0.255425
C15   C     C_R   0.401263 0.454779 0.073486 -0.077754
C16   C     C_R   0.401153 0.454976 0.924771 -0.083914
C17   C     C_R   0.605227 0.532063 0.927119 0.178582
C18   C     C_3   0.670673 0.653747 0.925660 0.444183
C19   C     C_3   0.670391 0.654163 0.084243 -0.517639
C20   C     C_R   0.498114 0.737892 0.500533 0.826599
C21   C     C_R   0.740056 0.495094 0.499828 0.852921
C22   C     C_3   0.071393 0.440807 0.639736 -0.392524
C23   C     C_3   0.928308 0.436341 0.637278 -0.413642
C24   C     C_3   0.072848 0.625115 0.481067 -0.391113
C25   C     C_3   0.072044 0.408983 0.378563 -0.424308
C26   C     C_3   0.122043 0.492606 0.499833 0.018545
Cu1   Cu    Cu3+1 0.499990 0.499980 0.640670 0.969425
Cu2   Cu    Cu3+1 0.500010 0.500020 0.359330 0.980614
H1    H     H_    0.102682 0.500135 0.729400 0.210895
H2    H     H_    0.105041 0.662297 0.379062 0.188551
H3    H     H_    0.892414 0.668780 0.389685 0.200289
H4    H     H_    0.469696 0.108904 0.271414 0.163634
H5    H     H_    0.471310 0.884372 0.273175 0.155310
H6    H     H_    0.513755 0.900990 0.845452 0.033076
H7    H     H_    0.505049 0.120541 0.840443 0.152420
H8    H     H_    0.648507 0.123919 0.728208 0.234104
H9    H     H_    0.320591 0.419501 0.128072 0.144602
H10   H     H_    0.108085 0.346550 0.657021 0.175687
H11   H     H_    0.320355 0.419927 0.868934 0.148712
H12   H     H_    0.613441 0.725970 0.878869 0.126026
H13   H     H_    0.764741 0.646428 0.131132 0.266846
H14   H     H_    0.611634 0.728017 0.130539 0.155617
H15   H     H_    0.895278 0.339331 0.647640 0.205630
H16   H     H_    0.893251 0.488266 0.729746 0.272035
H17   H     H_    0.110412 0.687082 0.565225 0.186507
H18   H     H_    0.897799 0.682304 0.576904 0.245307
H19   H     H_    0.109680 0.440423 0.276377 0.182766
H20   H     H_    0.104511 0.312802 0.393026 0.162362
N1    N     N_R   0.500800 0.500930 0.147930 -0.191551
N2    N     N_R   0.500800 0.500890 0.852020 -0.227775
O1    O     O_R   0.500000 0.319640 0.618810 -0.583468
O2    O     O_R   0.500010 0.319680 0.381230 -0.574951
O3    O     O_R   0.317690 0.499960 0.618790 -0.599087
O4    O     O_R   0.317700 0.500000 0.381210 -0.600227
O5    O     O_R   0.499990 0.680320 0.618770 -0.575876
O6    O     O_R   0.500000 0.680360 0.381190 -0.597936
O7    O     O_R   0.682300 0.500000 0.618790 -0.561464
O8    O     O_R   0.682310 0.500040 0.381210 -0.527277
F1    F     F_    0.891443 0.460643 0.247123 -0.672902
F2    F     F_    0.678144 0.895920 0.723576 -0.628754
F3    F     F_    0.789578 0.645790 0.871175 -0.632402
F4    F     F_    0.881038 0.292733 0.381747 -0.675559

loop_
_geom_bond_atom_site_label_1
_geom_bond_atom_site_label_2
_ccdc_geom_bond_type
C17   N2    A    
C2    C4    S    
Cu1   O3    S    
C18   F3    S    
C21   O7    A    
C6    C7    A    
C22   H1    S    
Cu2   O8    S    
C1    O1    A    
Cu2   N1    S    
C25   H19   S    
C9    C20   S    
C5    C13   S    
C12   O3    A    
C14   C17   A    
Cu1   N2    S    
C20   O6    A    
C4    F4    S    
C2    C21   S    
C17   C18   S    
Cu2   O6    S    
C19   H13   S    
C21   O8    A    
C11   F2    S    
C3    H3    S    
Cu2   O2    S    
C25   H20   S    
C3    C24   S    
C20   O5    A    
C24   H17   S    
C4    F1    S    
C5    C10   A    
C16   N2    A    
C13   H7    S    
C2    C3    S    
C8    H5    S    
C15   N1    A    
C22   C26   S    
C5    C6    A    
C24   C26   S    
C1    O2    A    
C24   H2    S    
C14   N1    A    
C7    C8    A    
C10   C11   S    
Cu1   O5    S    
C16   H11   S    
C15   C16   A    
C22   H10   S    
C9    C10   A    
C4    C25   S    
C11   C13   S    
C23   H15   S    
C13   H8    S    
C18   C19   S    
Cu1   O7    S    
C12   C26   S    
C2    C23   S    
C18   H12   S    
C22   C23   S    
C15   H9    S    
Cu2   O4    S    
C7    H4    S    
C3    H18   S    
C25   C26   S    
C14   C19   S    
C11   H6    S    
C12   O4    A    
C23   H16   S    
C19   H14   S    
Cu1   O1    S    
C8    C9    A    
Cu1   Cu2   S    
C1    C6    S    
