data_mof_unit_pretest_895.cif
_audit_creation_date              2012-12-10T18:29:44-0500
_audit_creation_method            fapswitch 2.2
_symmetry_space_group_name_H-M    P1
_symmetry_Int_Tables_number       1
_space_group_crystal_system       triclinic
_cell_length_a                    11.550726
_cell_length_b                    15.009661
_cell_length_c                    15.396086
_cell_angle_alpha                 82.294478
_cell_angle_beta                  89.669216
_cell_angle_gamma                 104.483639
_cell_volume                      2558.93947153

loop_
_atom_site_label
_atom_site_type_symbol
_atom_type_description
_atom_site_fract_x
_atom_site_fract_y
_atom_site_fract_z
_atom_type_partial_charge
C1    C     C_R   0.480066 0.441673 0.662393 0.868479
C2    C     C_R   0.410902 0.661752 0.984574 0.072662
C3    C     C_R   0.665685 0.839012 0.644724 -0.322601
C4    C     C_R   0.336261 0.161590 0.354022 -0.321450
C5    C     C_R   0.639919 0.751241 0.619461 0.018862
C6    C     C_R   0.361540 0.249202 0.379629 0.008008
C7    C     C_R   0.515501 0.794892 0.508046 -0.062457
C8    C     C_R   0.484039 0.204962 0.492164 -0.062980
C9    C     C_R   0.538090 0.885595 0.530221 -0.003228
C10   C     C_R   0.462335 0.114534 0.469407 -0.003237
C11   C     C_R   0.614664 0.906482 0.600514 0.181250
C12   C     C_R   0.514615 0.558049 0.337519 0.870150
C13   C     C_R   0.386510 0.093882 0.398668 0.190393
C14   C     C_R   0.487219 0.955218 0.485936 0.081221
C15   C     C_R   0.513351 0.044952 0.513593 0.080068
C16   C     C_R   0.718052 0.501025 0.500150 0.901729
C17   C     C_R   0.281944 0.498964 0.499875 0.899720
C18   C     C_R   0.589677 0.062189 0.584276 -0.237530
C19   C     C_R   0.411298 0.938099 0.415021 -0.234375
C20   C     C_R   0.639397 0.994177 0.626518 -0.213779
C21   C     C_R   0.361808 0.006185 0.372661 -0.220188
C22   C     C_1   0.839179 0.502551 0.500561 -0.193862
C23   C     C_R   0.383552 0.341566 0.932550 0.085344
C24   C     C_1   0.160820 0.497415 0.499514 -0.191763
C25   C     C_1   0.941032 0.501299 0.500330 -0.001681
C26   C     C_1   0.058965 0.498653 0.499774 -0.001856
C27   C     C_R   0.448147 0.405364 0.754768 -0.093267
C28   C     C_R   0.506088 0.591438 0.244564 -0.094186
C29   C     C_R   0.359460 0.277992 0.869783 0.098479
C30   C     C_R   0.505064 0.712508 0.122939 0.102146
C31   C     C_R   0.401512 0.310327 0.782626 -0.216780
C32   C     C_R   0.518550 0.684969 0.212514 -0.221316
C33   C     C_R   0.448296 0.468317 0.813042 -0.260772
C34   C     C_R   0.453449 0.642577 0.069594 0.083687
C35   C     C_R   0.479675 0.525672 0.187717 -0.257203
C36   C     C_R   0.411166 0.438349 0.900651 0.054406
C37   C     C_R   0.445595 0.547679 0.102637 0.055279
C38   C     C_3   0.398569 0.219684 0.065919 -0.457316
C39   C     C_3   0.506627 0.227391 0.125233 -0.322188
C40   C     C_3   0.528934 0.132121 0.155194 -0.882204
C41   C     C_3   0.360567 0.745155 0.955865 -0.451377
C42   C     C_3   0.229665 0.716060 0.929493 -0.313839
C43   C     C_3   0.178150 0.800416 0.908031 -0.898470
C44   C     C_3   0.275867 0.180908 0.889332 -0.467174
C45   C     C_R   0.411210 0.504371 0.957753 0.041325
C46   C     C_3   0.168437 0.167300 0.829470 -0.317736
C47   C     C_3   0.080567 0.072616 0.855794 -0.891734
C48   C     C_3   0.560767 0.813816 0.086105 -0.464338
C49   C     C_3   0.693290 0.845688 0.108067 -0.318004
C50   C     C_3   0.750395 0.944065 0.062785 -0.894684
C51   C     C_R   0.412412 0.477289 0.048066 0.046529
C52   C     C_R   0.388320 0.381498 0.080310 -0.247017
C53   C     C_R   0.403505 0.595638 0.927262 -0.252985
C54   C     C_R   0.383581 0.314295 0.024611 0.075733
H1    H     H_    0.613427 0.127752 0.609098 0.138653
H2    H     H_    0.303887 0.990034 0.318694 0.138455
H3    H     H_    0.540583 0.228127 0.544130 0.128154
H4    H     H_    0.457878 0.771409 0.456728 0.127979
H5    H     H_    0.324275 0.302644 0.345251 0.132646
H6    H     H_    0.677993 0.698029 0.653351 0.135028
H7    H     H_    0.724352 0.853881 0.698503 0.142774
H8    H     H_    0.278795 0.147104 0.299521 0.143209
H9    H     H_    0.447682 0.084532 0.189808 0.262535
H10   H     H_    0.553060 0.101562 0.097967 0.252303
H11   H     H_    0.603789 0.139269 0.200807 0.257582
H12   H     H_    0.388020 0.872663 0.389935 0.138038
H13   H     H_    0.588124 0.272884 0.088818 0.229260
H14   H     H_    0.491079 0.258003 0.184658 0.221890
H15   H     H_    0.315626 0.181000 0.104835 0.192928
H16   H     H_    0.415452 0.178499 0.015021 0.213349
H17   H     H_    0.179160 0.836915 0.966313 0.258860
H18   H     H_    0.231031 0.849422 0.852994 0.264010
H19   H     H_    0.084175 0.777455 0.888396 0.251659
H20   H     H_    0.222837 0.679707 0.870776 0.221189
H21   H     H_    0.174797 0.667906 0.984272 0.226624
H22   H     H_    0.360333 0.786563 0.010219 0.208432
H23   H     H_    0.487173 0.456574 0.211223 0.161091
H24   H     H_    0.416465 0.789837 0.899686 0.201297
H25   H     H_    0.125718 0.016009 0.851506 0.266084
H26   H     H_    0.044150 0.066774 0.923849 0.259736
H27   H     H_    0.004945 0.064285 0.810843 0.248405
H28   H     H_    0.121032 0.222629 0.833960 0.227622
H29   H     H_    0.198793 0.171635 0.760123 0.220815
H30   H     H_    0.326848 0.128549 0.881350 0.199331
H31   H     H_    0.237053 0.168003 0.957178 0.211235
H32   H     H_    0.747737 0.946754 0.990356 0.258694
H33   H     H_    0.702449 0.993680 0.083790 0.263577
H34   H     H_    0.483122 0.541615 0.790344 0.166286
H35   H     H_    0.845322 0.965484 0.080782 0.248408
H36   H     H_    0.702252 0.845292 0.179881 0.219581
H37   H     H_    0.743157 0.797565 0.086267 0.227397
H38   H     H_    0.559603 0.824692 0.013659 0.211561
H39   H     H_    0.509484 0.858422 0.112708 0.198738
H40   H     H_    0.545407 0.736786 0.256092 0.154801
H41   H     H_    0.391599 0.261803 0.735431 0.158726
H42   H     H_    0.374463 0.357013 0.149604 0.140675
H43   H     H_    0.381420 0.613839 0.860155 0.151402
H44   H     H_    0.697589 0.010398 0.680334 0.141397
N1    N     N_R   0.566020 0.731700 0.552730 -0.099483
N2    N     N_R   0.433980 0.268300 0.447270 -0.097737
O1    O     O_R   0.466720 0.383110 0.605620 -0.621648
O2    O     O_R   0.533280 0.616890 0.394380 -0.618876
O3    O     O_R   0.509090 0.531900 0.639510 -0.622095
O4    O     O_R   0.490910 0.468100 0.360490 -0.623059
O5    O     O_R   0.644370 0.425610 0.483050 -0.607345
O6    O     O_R   0.355630 0.574390 0.516950 -0.609125
O7    O     O_R   0.686740 0.574390 0.516930 -0.609527
O8    O     O_R   0.313260 0.425610 0.483070 -0.610367
Zn1   Zn    Zn3+2 0.471710 0.400660 0.477370 0.936541
Zn2   Zn    Zn3+2 0.528290 0.599340 0.522630 0.938410

loop_
_geom_bond_atom_site_label_1
_geom_bond_atom_site_label_2
_ccdc_geom_bond_type
C43   H19   S    
C15   C18   A    
C32   H40   S    
C38   H16   S    
C43   H18   S    
C34   C37   A    
C39   H14   S    
C47   H25   S    
C49   H36   S    
C27   C33   A    
C42   H21   S    
C40   H9    S    
C7    N1    A    
C12   C28   S    
O3    Zn2   S    
C23   C29   A    
C30   C48   S    
C35   C37   A    
C33   H34   S    
C24   C26   T    
C12   O4    A    
C10   C15   A    
C38   C39   S    
C37   C51   A    
C31   H41   S    
C45   C51   A    
C2    C41   S    
O1    Zn1   S    
C4    H8    S    
C33   C36   A    
O8    Zn1   S    
C19   H12   S    
C41   C42   S    
C4    C13   A    
C16   O7    A    
C46   H28   S    
C5    N1    A    
C28   C35   A    
C52   C54   A    
C22   C25   T    
C16   C22   S    
C1    O3    A    
C7    H4    S    
C2    C34   A    
C38   H15   S    
C45   C53   A    
N2    Zn1   S    
C47   H26   S    
C49   H37   S    
C6    H5    S    
C44   C46   S    
C3    H7    S    
C11   C20   A    
C42   H20   S    
C17   C24   S    
C48   H39   S    
C30   C34   A    
C27   C31   A    
C51   C52   A    
C28   C32   A    
C4    C6    A    
C17   O8    A    
C41   H24   S    
C44   H30   S    
C25   C26   S    
N1    Zn2   S    
C2    C53   A    
C6    N2    A    
C9    C14   A    
C12   O2    A    
C8    H3    S    
C50   H35   S    
C38   C54   S    
C13   C21   A    
C36   C45   A    
C9    C11   A    
C16   O5    A    
C50   H33   S    
C48   C49   S    
C23   C36   A    
C40   H11   S    
C29   C44   S    
O7    Zn2   S    
O2    Zn2   S    
C42   C43   S    
C44   H31   S    
C1    O1    A    
C39   C40   S    
C23   C54   A    
O6    Zn2   S    
C7    C9    A    
O5    Zn1   S    
C46   C47   S    
C43   H17   S    
C5    H6    S    
C19   C21   A    
C39   H13   S    
C14   C19   A    
C3    C5    A    
C10   C13   A    
C21   H2    S    
C40   H10   S    
C53   H43   S    
C8    N2    A    
C29   C31   A    
C17   O6    A    
C41   H22   S    
C30   C32   A    
O4    Zn1   S    
C18   H1    S    
C35   H23   S    
C52   H42   S    
C18   C20   A    
C47   H27   S    
C3    C11   A    
C50   H32   S    
C46   H29   S    
C20   H44   S    
C8    C10   A    
C49   C50   S    
C48   H38   S    
C1    C27   S    
C14   C15   A    
