data_mof_unit_pretest_1208.cif
_audit_creation_date              2012-12-11T15:52:26-0500
_audit_creation_method            fapswitch 2.2
_symmetry_space_group_name_H-M    P1
_symmetry_Int_Tables_number       1
_space_group_crystal_system       triclinic
_cell_length_a                    11.078525
_cell_length_b                    11.083408
_cell_length_c                    18.845406
_cell_angle_alpha                 90.015489
_cell_angle_beta                  90.046771
_cell_angle_gamma                 120.043159
_cell_volume                      2003.09743996

loop_
_atom_site_label
_atom_site_type_symbol
_atom_type_description
_atom_site_fract_x
_atom_site_fract_y
_atom_site_fract_z
_atom_type_partial_charge
C1    C     C_R   0.520412 0.457047 0.147368 0.570380
C2    C     C_3   0.959624 0.709944 0.460126 -0.268580
C3    C     C_3   0.748773 0.030998 0.467203 -0.265437
C4    C     C_3   0.284452 0.250150 0.459102 -0.267809
C5    C     C_R   0.517887 0.457625 0.353133 0.549319
C6    C     C_R   0.544992 0.065411 0.354839 0.548746
C7    C     C_R   0.940206 0.482428 0.352968 0.550413
C8    C     C_R   0.453959 0.521657 0.644426 0.540715
C9    C     C_R   0.070411 0.547377 0.643759 0.542566
C10   C     C_R   0.480572 0.938010 0.646405 0.546645
C11   C     C_R   0.504855 0.975338 0.928504 0.044718
C12   C     C_R   0.542861 0.063366 0.147353 0.570860
C13   C     C_R   0.025134 0.529625 0.928570 0.044275
C14   C     C_R   0.470398 0.495513 0.928572 0.044369
C15   C     C_R   0.997913 0.500505 0.077342 0.027099
C16   C     C_R   0.502461 0.002113 0.077275 0.026554
C17   C     C_R   0.499447 0.497354 0.077333 0.026902
C18   C     C_R   0.427671 0.026162 0.959998 -0.049761
C19   C     C_R   0.974244 0.401613 0.960096 -0.050173
C20   C     C_R   0.598453 0.572729 0.960206 -0.050513
C21   C     C_R   0.959072 0.386469 0.032490 -0.059305
C22   C     C_R   0.427420 0.041084 0.032405 -0.059653
C23   C     C_R   0.936584 0.479536 0.147367 0.569613
C24   C     C_R   0.613581 0.572747 0.032605 -0.059177
C25   C     C_R   0.569362 0.935428 0.047525 0.066700
C26   C     C_R   0.064657 0.634125 0.047599 0.066835
C27   C     C_R   0.365776 0.430307 0.047477 0.066597
C28   C     C_R   0.066446 0.648247 0.973150 0.087286
C29   C     C_R   0.581995 0.933898 0.973098 0.087431
C30   C     C_R   0.351663 0.418003 0.973027 0.087624
C31   C     C_3   0.426914 0.157126 0.945625 -0.277707
C32   C     C_3   0.843208 0.269745 0.945583 -0.277474
C33   C     C_3   0.730345 0.573779 0.945801 -0.277677
C34   C     C_R   0.452787 0.519330 0.854112 0.560410
C35   C     C_3   0.826517 0.251753 0.025534 -0.235602
C36   C     C_3   0.425285 0.173553 0.025594 -0.235516
C37   C     C_3   0.748372 0.575133 0.025767 -0.235253
C38   C     C_R   0.501900 0.004141 0.577620 0.016678
C39   C     C_R   0.042174 0.526682 0.568258 0.020710
C40   C     C_R   0.476340 0.511527 0.569343 0.020970
C41   C     C_R   0.014088 0.513521 0.420281 0.019900
C42   C     C_R   0.521427 0.029834 0.429394 0.023039
C43   C     C_R   0.488430 0.499874 0.420953 0.020576
C44   C     C_R   0.631402 0.061270 0.544138 0.018630
C45   C     C_R   0.066645 0.547304 0.854118 0.560860
C46   C     C_R   0.052089 0.638539 0.529902 0.035717
C47   C     C_R   0.362878 0.412683 0.530340 0.042728
C48   C     C_R   0.039306 0.633351 0.457593 0.024128
C49   C     C_R   0.639509 0.071723 0.471619 0.044601
C50   C     C_R   0.367436 0.406663 0.457926 0.029617
C51   C     C_R   0.394539 0.992467 0.462836 -0.172914
C52   C     C_R   0.032267 0.412676 0.456192 -0.153907
C53   C     C_R   0.592681 0.615555 0.457827 -0.170315
C54   C     C_R   0.044755 0.418362 0.530448 -0.152976
C55   C     C_R   0.385049 0.980728 0.536854 -0.164679
C56   C     C_R   0.480813 0.933566 0.854079 0.559619
C57   C     C_R   0.588294 0.619672 0.532179 -0.166422
C58   C     C_3   0.744117 0.023991 0.547265 -0.269669
C59   C     C_3   0.974516 0.714924 0.539807 -0.277672
C60   C     C_3   0.281672 0.258350 0.539019 -0.277506
Cr1   Cr    Cr6+3 0.769160 0.541570 0.250690 1.019338
Cr2   Cr    Cr6+3 0.458430 0.227590 0.250690 1.020267
Cr3   Cr    Cr6+3 0.772410 0.230840 0.250690 1.022698
Cr4   Cr    Cr6+3 0.541570 0.769160 0.749310 1.027818
Cr5   Cr    Cr6+3 0.227590 0.458430 0.749310 1.030409
Cr6   Cr    Cr6+3 0.230840 0.772410 0.749310 1.029417
H1    H     H_    0.329484 0.135099 0.918216 0.160935
H2    H     H_    0.838834 0.164857 0.046128 0.154662
H3    H     H_    0.325894 0.161098 0.046039 0.154713
H4    H     H_    0.835356 0.674460 0.046390 0.154784
H5    H     H_    0.302600 0.968159 0.431953 0.123293
H6    H     H_    0.026571 0.325449 0.427731 0.119309
H7    H     H_    0.682484 0.695623 0.430084 0.117295
H8    H     H_    0.051629 0.336779 0.558150 0.125050
H9    H     H_    0.283959 0.941328 0.561196 0.137936
H10   H     H_    0.674156 0.703267 0.560507 0.118033
H11   H     H_    0.708926 0.917720 0.567014 0.163540
H12   H     H_    0.865221 0.194298 0.918326 0.161143
H13   H     H_    0.040902 0.822115 0.560710 0.134593
H14   H     H_    0.175532 0.220291 0.560645 0.132800
H15   H     H_    0.850112 0.643443 0.443143 0.168490
H16   H     H_    0.848792 0.114713 0.446100 0.138197
H17   H     H_    0.344698 0.201151 0.440711 0.172114
H18   H     H_    0.840530 0.106995 0.572800 0.127029
H19   H     H_    0.873932 0.651632 0.568098 0.138781
H20   H     H_    0.342580 0.216966 0.566131 0.141941
H21   H     H_    0.016940 0.814274 0.434661 0.130387
H22   H     H_    0.709831 0.927868 0.441427 0.138130
H23   H     H_    0.805729 0.671322 0.918569 0.160840
H24   H     H_    0.179911 0.208572 0.434356 0.126175
H25   H     H_    0.581937 0.772232 0.085436 0.236366
H26   H     H_    0.738437 0.922547 0.080944 0.222092
H27   H     H_    0.227788 0.810122 0.085740 0.236397
H28   H     H_    0.077449 0.816062 0.080852 0.221928
H29   H     H_    0.189711 0.417078 0.085473 0.236457
H30   H     H_    0.183773 0.260857 0.080550 0.221893
H31   H     H_    0.019939 0.802124 0.960743 0.199503
H32   H     H_    0.187940 0.855134 0.964565 0.240313
H33   H     H_    0.782574 0.980382 0.960983 0.199413
H34   H     H_    0.736075 0.257783 0.046108 0.136133
H35   H     H_    0.667242 0.812380 0.964315 0.240455
H36   H     H_    0.197865 0.217370 0.960449 0.199475
H37   H     H_    0.144562 0.332031 0.964223 0.240246
H38   H     H_    0.521746 0.263950 0.046387 0.136152
H39   H     H_    0.742353 0.478688 0.046354 0.136287
H40   H     H_    0.524252 0.237657 0.919929 0.124481
H41   H     H_    0.762783 0.286482 0.919675 0.124675
H42   H     H_    0.713632 0.476631 0.919916 0.124782
N1    N     N_3   0.632886 0.879449 0.093280 -0.604631
N2    N     N_3   0.120490 0.753692 0.093364 -0.604490
N3    N     N_3   0.246163 0.366317 0.093129 -0.604774
N4    N     N_3   0.095393 0.778975 0.943386 -0.584851
N5    N     N_3   0.683922 0.905089 0.943390 -0.585062
N6    N     N_3   0.220891 0.315963 0.943143 -0.584865
O1    O     O_R   0.911480 0.572650 0.170990 -0.487809
O2    O     O_R   0.528970 0.640340 0.824320 -0.493509
O3    O     O_R   0.111370 0.471030 0.824320 -0.493419
O4    O     O_R   0.359660 0.888630 0.824320 -0.494289
O5    O     O_R   0.909980 0.572450 0.331530 -0.522512
O6    O     O_R   0.427550 0.337530 0.331530 -0.522274
O7    O     O_R   0.662470 0.090020 0.331530 -0.515811
O8    O     O_R   0.572450 0.909980 0.668470 -0.527631
O9    O     O_R   0.337530 0.427550 0.668470 -0.522511
O10   O     O_R   0.090020 0.662470 0.668470 -0.522852
O11   O     O_R   0.638950 0.528780 0.324500 -0.509272
O12   O     O_R   0.427350 0.338830 0.170990 -0.487712
O13   O     O_R   0.471220 0.110170 0.324500 -0.509385
O14   O     O_R   0.889830 0.361050 0.324500 -0.505018
O15   O     O_R   0.528780 0.638950 0.675500 -0.511528
O16   O     O_R   0.110170 0.471220 0.675500 -0.511077
O17   O     O_R   0.361050 0.889830 0.675500 -0.512602
O18   O     O_3   0.666667 0.333333 0.250560 -0.271217
O19   O     O_3   0.333333 0.666667 0.749440 -0.267993
O20   O     O_R   0.661170 0.088520 0.170990 -0.487747
O21   O     O_R   0.572650 0.911480 0.829010 -0.478444
O22   O     O_R   0.338830 0.427350 0.829010 -0.478308
O23   O     O_R   0.088520 0.661170 0.829010 -0.477840
O24   O     O_R   0.640340 0.528970 0.175680 -0.511848
O25   O     O_R   0.471030 0.111370 0.175680 -0.511402
O26   O     O_R   0.888630 0.359660 0.175680 -0.512610

loop_
_geom_bond_atom_site_label_1
_geom_bond_atom_site_label_2
_ccdc_geom_bond_type
C44   C49   A    
C40   C47   A    
C11   C18   A    
Cr4   O2    S    
C46   C59   S    
Cr1   O5    S    
H35   N5    S    
Cr3   O26   S    
C59   H19   S    
Cr5   O16   S    
C3    C49   S    
C9    O16   A    
C28   N4    S    
C31   H1    S    
C4    H17   S    
H36   N6    S    
C57   H10   S    
C19   C21   A    
C6    O13   A    
C58   H18   S    
Cr5   O9    S    
Cr2   O13   S    
Cr1   O24   S    
C39   C54   A    
C34   O2    A    
C9    C39   S    
C9    O10   A    
C14   C20   A    
C20   C24   A    
C10   O17   A    
Cr1   O18   S    
C47   C60   S    
C54   H8    S    
C43   C53   A    
C38   C55   A    
C12   C16   S    
C44   C58   S    
C7    O5    A    
Cr1   O1    S    
C13   C28   A    
Cr2   O25   S    
C26   N2    S    
C41   C52   A    
Cr2   O6    S    
Cr3   O14   S    
C58   H11   S    
C25   N1    S    
H27   N2    S    
C55   H9    S    
C15   C23   S    
C5    C43   S    
Cr4   O21   S    
C27   N3    S    
C12   O20   A    
C37   H4    S    
C27   C30   A    
C33   H42   S    
C51   H5    S    
C14   C30   A    
C19   C32   S    
C26   C28   A    
Cr3   O7    S    
C52   C54   A    
C38   C44   A    
C47   C50   A    
C4    H24   S    
C25   C29   A    
H30   N3    S    
C46   C48   A    
C17   C24   A    
H32   N4    S    
H33   N5    S    
C13   C19   A    
C5    O6    A    
C17   C27   A    
C32   C35   S    
Cr2   O18   S    
C23   O26   A    
H37   N6    S    
C1    O12   A    
C59   H13   S    
Cr2   O12   S    
H31   N4    S    
C60   H20   S    
C2    C59   S    
C15   C26   A    
C2    C48   S    
C32   H12   S    
H28   N2    S    
C33   C37   S    
C4    C50   S    
Cr3   O20   S    
C37   H39   S    
C52   H6    S    
C33   H23   S    
Cr6   O19   S    
C34   O22   A    
C4    C60   S    
C3    H16   S    
C45   O23   A    
C24   C37   S    
C12   O25   A    
C2    H21   S    
C43   C50   A    
Cr3   O18   S    
C39   C46   A    
C20   C33   S    
Cr6   O4    S    
C7    O14   A    
C31   H40   S    
Cr6   O10   S    
C35   H34   S    
C56   O21   A    
C36   H3    S    
Cr6   O17   S    
C30   N6    S    
C45   O3    A    
C16   C25   A    
C29   N5    S    
Cr4   O19   S    
C60   H14   S    
C16   C22   A    
C40   C57   A    
C3    H22   S    
C18   C22   A    
C56   O4    A    
C53   H7    S    
C10   O8    A    
C53   C57   A    
C14   C34   S    
C8    O9    A    
C21   C35   S    
C22   C36   S    
C42   C51   A    
C1    C17   S    
C36   H38   S    
C10   C38   S    
H25   N1    S    
H29   N3    S    
C13   C45   S    
C32   H41   S    
Cr6   O23   S    
C35   H2    S    
Cr4   O8    S    
C41   C48   A    
C51   C55   A    
C7    C41   S    
H26   N1    S    
Cr5   O22   S    
C1    O24   A    
C42   C49   A    
C23   O1    A    
C3    C58   S    
C15   C21   A    
Cr4   O15   S    
C11   C29   A    
C6    C42   S    
C5    O11   A    
C8    O15   A    
Cr5   O3    S    
C31   C36   S    
C2    H15   S    
Cr1   O11   S    
C18   C31   S    
C8    C40   S    
C6    O7    A    
Cr5   O19   S    
C11   C56   S    
