data_mof_unit_pretest_199.cif
_audit_creation_date              2012-10-26T18:33:39-0400
_audit_creation_method            fapswitch 2.2
_symmetry_space_group_name_H-M    P1
_symmetry_Int_Tables_number       1
_space_group_crystal_system       triclinic
_cell_length_a                    15.072182
_cell_length_b                    13.689145
_cell_length_c                    10.747805
_cell_angle_alpha                 89.864099
_cell_angle_beta                  89.800071
_cell_angle_gamma                 90.24831
_cell_volume                      2217.50328514

loop_
_atom_site_label
_atom_site_type_symbol
_atom_type_description
_atom_site_fract_x
_atom_site_fract_y
_atom_site_fract_z
_atom_type_partial_charge
Br1   Br    Br    0.099157 0.233022 0.318195 -0.491648
Br2   Br    Br    0.751928 0.673648 0.670794 -0.536364
C1    C     C_R   0.328662 0.499799 0.500193 0.532915
C2    C     C_R   0.049911 0.654013 0.618277 -0.119438
C3    C     C_R   0.094843 0.577197 0.560938 0.027410
C4    C     C_R   0.498490 0.499939 0.259750 0.539557
C5    C     C_R   0.047046 0.499020 0.507577 0.038032
C6    C     C_R   0.092522 0.420162 0.451222 0.030065
C7    C     C_R   0.043830 0.343124 0.396968 0.165534
C8    C     C_R   0.951363 0.345448 0.398604 -0.083236
C9    C     C_R   0.187058 0.577480 0.556369 -0.116906
C10   C     C_R   0.232198 0.499415 0.502184 -0.019496
C11   C     C_R   0.185382 0.420910 0.450669 -0.101080
C12   C     C_3   0.584630 0.534302 0.926351 -0.249802
C13   C     C_R   0.441980 0.792853 0.575188 0.050261
C14   C     C_R   0.441701 0.206288 0.574697 0.059262
C15   C     C_R   0.558007 0.793699 0.424960 0.065890
C16   C     C_R   0.558050 0.207122 0.425014 0.045988
C17   C     C_R   0.559446 0.896787 0.423258 -0.007351
C18   C     C_R   0.559440 0.104050 0.423236 -0.009794
C19   C     C_R   0.671369 0.500378 0.504982 0.578340
C20   C     C_R   0.500010 0.948162 0.500116 0.057773
C21   C     C_R   0.499983 0.051822 0.500063 0.056415
C22   C     C_R   0.440584 0.895932 0.576991 -0.011573
C23   C     C_R   0.814091 0.424710 0.454797 -0.160161
C24   C     C_R   0.440452 0.103206 0.576753 -0.006103
C25   C     C_R   0.618595 0.949496 0.346818 -0.125586
C26   C     C_R   0.618600 0.052189 0.346817 -0.129338
C27   C     C_R   0.381357 0.050512 0.653297 -0.111867
C28   C     C_R   0.381445 0.947807 0.653450 -0.132094
C29   C     C_R   0.496812 0.499685 0.740146 0.516918
C30   C     C_3   0.419715 0.565539 0.074735 -0.194249
C31   C     C_3   0.478730 0.394176 0.073638 -0.194486
C32   C     C_3   0.421125 0.570881 0.930113 -0.094380
C33   C     C_3   0.477786 0.392271 0.930369 -0.085624
C34   C     C_R   0.768186 0.501259 0.511682 0.005669
C35   C     C_3   0.585456 0.536908 0.069673 -0.255737
C36   C     C_3   0.495837 0.499388 0.122070 -0.014250
C37   C     C_3   0.492874 0.498601 0.878164 -0.020665
C38   C     C_2   0.330534 0.558976 0.870705 0.184261
C39   C     C_2   0.395309 0.341056 0.882546 0.249851
C40   C     C_R   0.814868 0.576791 0.573298 0.138369
C41   C     C_R   0.908316 0.577604 0.569662 0.039044
C42   C     C_R   0.953783 0.499957 0.510568 0.026823
C43   C     C_R   0.906262 0.422959 0.454810 -0.024896
C44   C     C_R   0.957741 0.654064 0.623359 -0.091757
Cu1   Cu    Cu3+1 0.499990 0.597420 0.500010 0.967708
Cu2   Cu    Cu3+1 0.499990 0.402580 0.500010 0.944039
H1    H     H_    0.427325 0.640764 0.112481 0.128641
H2    H     H_    0.603267 0.248393 0.366419 0.116939
H3    H     H_    0.664845 0.911325 0.287025 0.120701
H4    H     H_    0.664862 0.091025 0.287040 0.115006
H5    H     H_    0.335095 0.088709 0.713056 0.154599
H6    H     H_    0.335226 0.908971 0.713295 0.117782
H7    H     H_    0.355851 0.536660 0.111879 0.182225
H8    H     H_    0.414867 0.366567 0.113105 0.182761
H9    H     H_    0.442546 0.646375 0.904817 0.112188
H10   H     H_    0.534840 0.346619 0.899617 0.141428
H11   H     H_    0.597940 0.613039 0.101555 0.138590
H12   H     H_    0.531746 0.344185 0.107068 0.127342
H13   H     H_    0.640674 0.490851 0.104934 0.124933
H14   H     H_    0.600053 0.608633 0.889719 0.175901
H15   H     H_    0.638116 0.485040 0.892584 0.141735
H16   H     H_    0.777717 0.366549 0.408905 0.121639
H17   H     H_    0.926270 0.715373 0.668352 0.177873
H18   H     H_    0.323814 0.570913 0.771448 0.105795
H19   H     H_    0.352666 0.375121 0.814284 0.139138
H20   H     H_    0.086171 0.714229 0.659622 0.124693
H21   H     H_    0.223841 0.637739 0.596904 0.114857
H22   H     H_    0.222127 0.361738 0.408669 0.183024
H23   H     H_    0.914597 0.286204 0.355890 0.146565
H24   H     H_    0.396869 0.751556 0.633934 0.109092
H25   H     H_    0.396181 0.246892 0.632720 0.138305
H26   H     H_    0.603177 0.753058 0.366324 0.128309
N1    N     N_R   0.499930 0.743810 0.499950 -0.230834
N2    N     N_R   0.499930 0.256190 0.499950 -0.241685
O1    O     O_R   0.370250 0.582280 0.500040 -0.515348
O2    O     O_2   0.377827 0.257986 0.916584 -0.506127
O3    O     O_R   0.370250 0.417720 0.500040 -0.509558
O4    O     O_R   0.499970 0.582270 0.317700 -0.511316
O5    O     O_R   0.499970 0.417730 0.317700 -0.510250
O6    O     O_R   0.629730 0.582260 0.499980 -0.454122
O7    O     O_R   0.629730 0.417740 0.499980 -0.513578
O8    O     O_R   0.500000 0.582270 0.682320 -0.498271
O9    O     O_R   0.500000 0.417730 0.682320 -0.517558
O10   O     O_2   0.264554 0.537190 0.931099 -0.493659

loop_
_geom_bond_atom_site_label_1
_geom_bond_atom_site_label_2
_ccdc_geom_bond_type
C13   N1    A    
C6    C11   A    
C29   O9    A    
Cu2   N2    S    
C34   C40   A    
C1    O3    A    
C5    C6    A    
C39   H19   S    
C19   C34   S    
C2    C44   A    
C13   H24   S    
C28   H6    S    
C35   C36   S    
C33   H10   S    
C32   C38   S    
Cu2   O3    S    
C3    C9    A    
C21   C24   A    
C11   H22   S    
C12   H14   S    
Cu2   O5    S    
Cu1   O6    S    
C38   O10   D    
C1    C10   S    
C15   C17   A    
C12   C37   S    
C19   O7    A    
C6    C7    A    
C32   H9    S    
C4    C36   S    
C30   C36   S    
C17   C25   A    
C7    C8    A    
C30   H7    S    
C8    H23   S    
C31   H8    S    
C4    O5    A    
C38   H18   S    
Cu1   O4    S    
C25   H3    S    
C14   C24   A    
C14   H25   S    
C17   C20   A    
Br1   C7    S    
C44   H17   S    
C39   O2    D    
C2    H20   S    
C18   C26   A    
C5    C42   A    
C29   O8    A    
C32   C37   S    
C23   H16   S    
C30   C32   S    
C33   C37   S    
C41   C42   A    
C27   C28   A    
C4    O4    A    
Cu1   Cu2   S    
C18   C21   A    
C8    C43   A    
Cu1   O8    S    
C19   O6    A    
C35   H11   S    
C13   C22   A    
C31   H12   S    
C15   H26   S    
C20   C22   A    
C40   C41   A    
Cu1   O1    S    
C1    O1    A    
C23   C43   A    
C42   C43   A    
C16   H2    S    
C3    C5    A    
C16   N2    A    
C14   N2    A    
Cu2   O9    S    
C2    C3    A    
C35   H13   S    
C9    C10   A    
C9    H21   S    
C31   C36   S    
Cu2   O7    S    
Cu1   N1    S    
C12   C35   S    
C26   H4    S    
C27   H5    S    
Br2   C40   S    
C12   H15   S    
C31   C33   S    
C29   C37   S    
C16   C18   A    
C33   C39   S    
C41   C44   A    
C22   C28   A    
C30   H1    S    
C23   C34   A    
C10   C11   A    
C24   C27   A    
C25   C26   A    
C15   N1    A    
C20   C21   A    
