data_mof_unit_pretest_769.cif
_audit_creation_date              2012-12-11T17:04:47-0500
_audit_creation_method            fapswitch 2.2
_symmetry_space_group_name_H-M    P1
_symmetry_Int_Tables_number       1
_space_group_crystal_system       triclinic
_cell_length_a                    17.503764
_cell_length_b                    24.336061
_cell_length_c                    14.933143
_cell_angle_alpha                 89.966342
_cell_angle_beta                  125.236872
_cell_angle_gamma                 89.869315
_cell_volume                      5195.56082364

loop_
_atom_site_label
_atom_site_type_symbol
_atom_type_description
_atom_site_fract_x
_atom_site_fract_y
_atom_site_fract_z
_atom_type_partial_charge
C1    C     C_R   0.846533 0.650904 0.905972 -0.106387
C2    C     C_R   0.934603 0.502741 0.632544 0.068674
C3    C     C_R   0.765969 0.046807 0.287453 -0.214588
C4    C     C_R   0.813826 0.374146 0.909918 -0.072079
C5    C     C_R   0.187042 0.375474 0.087690 -0.091092
C6    C     C_R   0.312279 0.876691 0.911493 -0.081232
C7    C     C_R   0.685869 0.873435 0.089748 -0.078224
C8    C     C_R   0.939936 0.652502 0.088943 -0.138671
C9    C     C_R   0.064417 0.650850 0.910024 -0.118660
C10   C     C_R   0.435518 0.150970 0.089569 -0.118549
C11   C     C_R   0.560320 0.152352 0.910770 -0.138658
C12   C     C_R   0.875939 0.682628 0.996524 0.105287
C13   C     C_R   0.565199 0.002530 0.367306 0.067562
C14   C     C_R   0.130572 0.680495 0.002543 0.103730
C15   C     C_R   0.369201 0.180641 0.996806 0.101349
C16   C     C_R   0.624579 0.182288 0.003064 0.107802
C17   C     C_R   0.534219 0.002925 0.708035 0.055145
C18   C     C_R   0.693945 0.502961 0.641471 -0.041570
C19   C     C_R   0.321660 0.500171 0.325666 -0.031429
C20   C     C_R   0.191924 0.002905 0.643781 -0.042618
C21   C     C_R   0.817370 0.000344 0.339584 -0.025055
C22   C     C_3   0.529578 0.473191 0.564334 -0.103115
C23   C     C_3   0.483946 0.449382 0.448819 0.004102
C24   C     C_3   0.028783 0.975785 0.578782 -0.111668
C25   C     C_R   0.156607 0.649729 0.093494 -0.111103
C26   C     C_3   0.979014 0.949069 0.464979 -0.001747
C27   C     C_3   0.465280 0.523923 0.518354 -0.146287
C28   C     C_3   0.554127 0.480238 0.436090 -0.082069
C29   C     C_3   0.964736 0.026678 0.530705 -0.151046
C30   C     C_3   0.046603 0.977276 0.444664 -0.076113
C31   C     C_3   0.420553 0.500128 0.404205 0.148575
C32   C     C_3   0.598320 0.503867 0.550343 0.137160
C33   C     C_3   0.916131 0.999985 0.418405 0.147591
C34   C     C_3   0.094928 0.003771 0.557129 0.137232
C35   C     C_3   0.488531 0.530979 0.389028 -0.178853
C36   C     C_R   0.342838 0.149690 0.906051 -0.103813
C37   C     C_3   0.535133 0.554751 0.505339 -0.175787
C38   C     C_3   0.981776 0.028160 0.395971 -0.178649
C39   C     C_3   0.032314 0.054824 0.510355 -0.171009
C40   C     C_R   0.783693 0.299952 0.103224 0.059509
C41   C     C_R   0.213361 0.302120 0.893814 0.046177
C42   C     C_R   0.286735 0.801475 0.104625 0.049684
C43   C     C_R   0.716886 0.800558 0.896106 0.058414
C44   C     C_R   0.749233 0.329159 0.006649 -0.064067
C45   C     C_R   0.251643 0.333680 0.988306 -0.056066
C46   C     C_R   0.248172 0.833333 0.010165 -0.057924
C47   C     C_R   0.653573 0.150694 0.093773 -0.112172
C48   C     C_R   0.750998 0.829420 0.992749 -0.062907
C49   C     C_R   0.659220 0.316910 0.912353 0.474554
C50   C     C_R   0.340400 0.319488 0.082997 0.480735
C51   C     C_R   0.159785 0.818917 0.915285 0.480031
C52   C     C_R   0.841371 0.817370 0.086884 0.474574
C53   C     C_R   0.907869 0.370764 0.092621 -0.116108
C54   C     C_R   0.095519 0.378489 0.904745 -0.106173
C55   C     C_R   0.404065 0.878562 0.094766 -0.109572
C56   C     C_R   0.591983 0.870683 0.907211 -0.112059
C57   C     C_R   0.119408 0.769107 0.912767 -0.211114
C58   C     C_R   0.818310 0.359329 0.002188 0.071509
C59   C     C_R   0.886768 0.770275 0.087428 -0.212035
C60   C     C_R   0.614358 0.269729 0.911840 -0.210901
C61   C     C_R   0.381072 0.269598 0.085862 -0.212862
C62   C     C_R   0.161983 0.736015 0.006792 0.018468
C63   C     C_R   0.846826 0.738498 0.992270 0.023912
C64   C     C_R   0.654299 0.237901 0.007098 0.023481
C65   C     C_R   0.338260 0.236408 0.992137 0.019182
C66   C     C_R   0.243298 0.754242 0.103694 0.019229
C67   C     C_R   0.765119 0.756165 0.895366 0.015905
C68   C     C_R   0.735944 0.255422 0.103970 0.014375
C69   C     C_R   0.184327 0.365191 0.994517 0.075945
C70   C     C_R   0.256997 0.254794 0.895014 0.020987
C71   C     C_3   0.260042 0.768019 0.211651 0.088763
C72   C     C_3   0.751966 0.774833 0.791628 0.104016
C73   C     C_3   0.749367 0.273657 0.208046 0.103788
C74   C     C_3   0.240928 0.268826 0.787456 0.088104
C75   C     C_3   0.802099 0.322224 0.207090 -0.530612
C76   C     C_3   0.192329 0.320381 0.786271 -0.493447
C77   C     C_3   0.308609 0.819406 0.212656 -0.496445
C78   C     C_3   0.698694 0.823253 0.792545 -0.530794
C79   C     C_R   0.899274 0.555049 0.470516 0.147177
C80   C     C_R   0.315060 0.865649 0.004561 0.073557
C81   C     C_R   0.908513 0.554972 0.385002 0.153397
C82   C     C_R   0.590984 0.054678 0.614518 0.154458
C83   C     C_R   0.600336 0.054728 0.529101 0.148537
C84   C     C_R   0.898763 0.505260 0.517330 0.028736
C85   C     C_R   0.918102 0.505175 0.345617 0.041003
C86   C     C_R   0.581252 0.004908 0.653806 0.039815
C87   C     C_R   0.600904 0.004926 0.482421 0.030901
C88   C     C_R   0.881141 0.456671 0.457441 -0.158910
C89   C     C_R   0.891679 0.456616 0.371709 -0.187214
C90   C     C_R   0.607611 0.956249 0.627783 -0.191010
C91   C     C_R   0.681490 0.859028 0.997458 0.072095
C92   C     C_R   0.618380 0.956264 0.542278 -0.147007
C93   C     C_3   0.969374 0.604914 0.426945 -0.486532
C94   C     C_3   0.959670 0.604983 0.520773 -0.487663
C95   C     C_3   0.539908 0.104885 0.478708 -0.489679
C96   C     C_3   0.530116 0.104842 0.572465 -0.487561
C97   C     C_R   0.986292 0.547928 0.253548 -0.132445
C98   C     C_R   0.950654 0.547498 0.697247 -0.137315
C99   C     C_R   0.549237 0.047373 0.302655 -0.137076
C100  C     C_R   0.513366 0.047857 0.746099 -0.133887
C101  C     C_R   0.742974 0.456362 0.697054 0.436441
C102  C     C_R   0.965159 0.503036 0.291353 0.053810
C103  C     C_R   0.265519 0.454549 0.286975 0.439435
C104  C     C_R   0.241772 0.956300 0.698311 0.437620
C105  C     C_R   0.762495 0.954640 0.293481 0.437787
C106  C     C_R   0.997016 0.456496 0.268195 -0.081765
C107  C     C_R   0.949482 0.456177 0.694158 -0.112600
C108  C     C_R   0.550412 0.956024 0.305774 -0.104269
C109  C     C_R   0.502449 0.956472 0.731277 -0.086197
C110  C     C_R   0.741329 0.547993 0.702002 -0.202147
C111  C     C_R   0.268524 0.546759 0.278447 -0.204716
C112  C     C_R   0.240320 0.047994 0.703251 -0.198892
Cl1   Cl    Cl    0.597607 0.359590 0.795757 -0.641526
Cl2   Cl    Cl    0.404523 0.363320 0.197209 -0.657016
Cl3   Cl    Cl    0.094990 0.862395 0.800368 -0.644663
Cl4   Cl    Cl    0.902299 0.860115 0.203228 -0.654079
Cl5   Cl    Cl    0.729476 0.391957 0.636423 -0.681130
Cl6   Cl    Cl    0.284374 0.393656 0.360985 -0.658343
Cl7   Cl    Cl    0.226486 0.891698 0.637611 -0.659314
Cl8   Cl    Cl    0.775126 0.893024 0.362627 -0.682571
H1    H     H_    0.806353 0.664031 0.821327 0.096564
H2    H     H_    0.557993 0.597979 0.529236 0.124919
H3    H     H_    0.958891 0.049523 0.318489 0.144284
H4    H     H_    0.056161 0.098144 0.529459 0.124519
H5    H     H_    0.055207 0.756540 0.837276 0.184166
H6    H     H_    0.951357 0.758025 0.162936 0.187157
H7    H     H_    0.549914 0.257578 0.836323 0.187214
H8    H     H_    0.445381 0.256954 0.161403 0.184225
H9    H     H_    0.308730 0.738504 0.277331 0.097012
H10   H     H_    0.706877 0.746356 0.722273 0.094405
H11   H     H_    0.794865 0.244969 0.277212 0.095319
H12   H     H_    0.197096 0.662973 0.177832 0.105320
H13   H     H_    0.192356 0.239602 0.721496 0.095884
H14   H     H_    0.877706 0.321121 0.275482 0.164633
H15   H     H_    0.116030 0.320268 0.720332 0.167151
H16   H     H_    0.385012 0.818837 0.278133 0.166915
H17   H     H_    0.623154 0.822255 0.723965 0.164706
H18   H     H_    0.767190 0.362529 0.194656 0.228860
H19   H     H_    0.228425 0.359276 0.792771 0.231523
H20   H     H_    0.272843 0.858453 0.206802 0.230639
H21   H     H_    0.733325 0.863575 0.805344 0.229537
H22   H     H_    0.872627 0.417624 0.485220 0.148305
H23   H     H_    0.301694 0.162724 0.821429 0.102845
H24   H     H_    0.891235 0.417735 0.336811 0.127178
H25   H     H_    0.607724 0.917370 0.662454 0.127269
H26   H     H_    0.626849 0.917178 0.514555 0.147641
H27   H     H_    0.935013 0.640890 0.371466 0.205600
H28   H     H_    0.027313 0.596716 0.600849 0.205731
H29   H     H_    0.472296 0.096865 0.398618 0.205017
H30   H     H_    0.564450 0.140684 0.627898 0.206368
H31   H     H_    0.938728 0.357212 0.175170 0.109388
H32   H     H_    0.068049 0.374145 0.819319 0.111599
H33   H     H_    0.431413 0.873933 0.180134 0.111388
H34   H     H_    0.693615 0.163814 0.178286 0.098744
H35   H     H_    0.561127 0.857333 0.824642 0.109883
H36   H     H_    0.042307 0.596550 0.454045 0.205870
H37   H     H_    0.920008 0.641092 0.519476 0.207310
H38   H     H_    0.579562 0.140859 0.479978 0.208280
H39   H     H_    0.457172 0.096742 0.545331 0.204900
H40   H     H_    0.971132 0.590512 0.256213 0.111436
H41   H     H_    0.930167 0.589547 0.670913 0.107538
H42   H     H_    0.569673 0.089346 0.328943 0.108314
H43   H     H_    0.528465 0.090393 0.743344 0.111683
H44   H     H_    0.001530 0.415665 0.298420 0.096923
H45   H     H_    0.548624 0.449668 0.638236 0.204325
H46   H     H_    0.930292 0.414534 0.664402 0.124535
H47   H     H_    0.569519 0.914286 0.335499 0.122038
H48   H     H_    0.497612 0.915703 0.700772 0.099179
H49   H     H_    0.725540 0.590788 0.678767 0.121044
H50   H     H_    0.290374 0.589145 0.297804 0.127842
H51   H     H_    0.223663 0.090802 0.680664 0.123567
H52   H     H_    0.786809 0.089267 0.308513 0.127972
H53   H     H_    0.758043 0.367165 0.825847 0.208122
H54   H     H_    0.242349 0.365082 0.170255 0.203527
H55   H     H_    0.256273 0.868491 0.827985 0.206239
H56   H     H_    0.464473 0.405773 0.425765 0.223167
H57   H     H_    0.741362 0.865271 0.173428 0.205479
H58   H     H_    0.985099 0.667427 0.172078 0.112666
H59   H     H_    0.021906 0.665065 0.826021 0.106328
H60   H     H_    0.478237 0.165260 0.173377 0.106912
H61   H     H_    0.515358 0.167338 0.827507 0.112171
H62   H     H_    0.426231 0.541308 0.549674 0.145211
H63   H     H_    0.593571 0.462860 0.405291 0.179434
H64   H     H_    0.928370 0.046285 0.563552 0.140613
H65   H     H_    0.082950 0.957665 0.411811 0.187152
H66   H     H_    0.050743 0.954679 0.656039 0.202294
H67   H     H_    0.959152 0.905181 0.447242 0.221182
H68   H     H_    0.467941 0.554488 0.314452 0.142302
I1    I     I_    0.136113 0.786362 0.203037 -0.350777
I2    I     I_    0.877956 0.799014 0.809900 -0.333509
I3    I     I_    0.623497 0.297688 0.190611 -0.343143
I4    I     I_    0.365409 0.286568 0.797187 -0.343637
N1    N     N_R   0.892620 0.603790 0.941770 -0.042743
N2    N     N_R   0.973690 0.529110 0.793240 -0.043791
N3    N     N_R   0.526310 0.029110 0.206760 -0.043861
N4    N     N_R   0.473690 0.029110 0.793240 -0.045137
N5    N     N_R   0.818570 0.472310 0.793020 -0.084246
N6    N     N_R   0.181430 0.472310 0.206980 -0.082665
N7    N     N_R   0.318570 0.972310 0.793020 -0.086408
N8    N     N_R   0.681430 0.972310 0.206980 -0.082119
N9    N     N_R   0.026930 0.472300 0.207330 -0.038971
N10   N     N_R   0.973070 0.472300 0.792670 -0.045158
N11   N     N_R   0.526930 0.972300 0.207330 -0.044872
N12   N     N_R   0.107380 0.603790 0.058230 -0.043006
N13   N     N_R   0.473070 0.972300 0.792670 -0.040158
N14   N     N_R   0.817960 0.529130 0.792460 -0.060923
N15   N     N_R   0.182040 0.529130 0.207540 -0.060801
N16   N     N_R   0.317960 0.029130 0.792460 -0.062842
N17   N     N_R   0.682040 0.029130 0.207540 -0.059528
N18   N     N_R   0.894850 0.397640 0.943830 -0.052773
N19   N     N_R   0.105150 0.397640 0.056170 -0.053173
N20   N     N_R   0.394850 0.897640 0.943830 -0.051487
N21   N     N_R   0.605150 0.897640 0.056170 -0.053732
N22   N     N_R   0.950040 0.603780 0.055950 -0.044607
N23   N     N_R   0.392620 0.103790 0.941770 -0.043571
N24   N     N_R   0.049960 0.603780 0.944050 -0.044971
N25   N     N_R   0.450040 0.103780 0.055950 -0.045101
N26   N     N_R   0.549960 0.103780 0.944050 -0.044395
N27   N     N_R   0.607380 0.103790 0.058230 -0.042334
N28   N     N_R   0.952270 0.397640 0.058010 -0.047573
N29   N     N_R   0.047730 0.397640 0.941990 -0.048088
N30   N     N_R   0.452270 0.897640 0.058010 -0.048534
N31   N     N_R   0.547730 0.897640 0.941990 -0.046695
N32   N     N_R   0.026310 0.529110 0.206760 -0.044526
Ni1   Ni    Ni4+2 0.934160 0.565860 0.869070 0.212275
Ni2   Ni    Ni4+2 0.065840 0.565860 0.130930 0.223124
Ni3   Ni    Ni4+2 0.434160 0.065860 0.869070 0.219762
Ni4   Ni    Ni4+2 0.565840 0.065860 0.130930 0.214750
Ni5   Ni    Ni4+2 0.067260 0.435560 0.132230 0.276945
Ni6   Ni    Ni4+2 0.932740 0.435560 0.867770 0.264265
Ni7   Ni    Ni4+2 0.567260 0.935560 0.132230 0.265903
Ni8   Ni    Ni4+2 0.432740 0.935560 0.867770 0.275904

loop_
_geom_bond_atom_site_label_1
_geom_bond_atom_site_label_2
_ccdc_geom_bond_type
C44   C49   A    
C3    N17   A    
C83   C87   A    
C73   H11   S    
C93   C94   S    
C29   H64   S    
C29   C33   S    
C95   H38   S    
C5    H54   S    
N26   Ni3   S    
C2    C84   S    
C95   C96   S    
C11   H61   S    
C77   H20   S    
C9    C14   A    
C25   N12   A    
C19   C31   S    
N6    Ni5   S    
N18   N28   A    
C57   C62   A    
N20   N30   A    
N5    Ni6   S    
C59   H6    S    
C98   N2    A    
C49   C60   A    
C22   C32   S    
N3    Ni4   S    
C64   C68   A    
N2    Ni1   S    
C52   C59   A    
C36   H23   S    
C24   C26   S    
C108  N11   A    
C8    N22   A    
C10   C15   A    
N23   N25   A    
C36   N23   A    
C57   H5    S    
C38   C39   S    
N20   Ni8   S    
C101  N5    A    
C3    H52   S    
C112  H51   S    
C6    N20   A    
C6    H55   S    
C65   C70   A    
C15   C65   S    
C74   H13   S    
C99   N3    A    
C2    C107  A    
C4    N18   A    
C30   C38   S    
C24   H66   S    
C67   C72   S    
C42   C46   A    
C100  N4    A    
C88   H22   S    
N4    N13   A    
C24   C29   S    
C72   C78   S    
N15   Ni2   S    
C20   C112  A    
C22   H45   S    
C19   C103  A    
C105  N8    A    
C28   C35   S    
C44   C58   S    
C35   H68   S    
C56   C91   A    
C48   C91   S    
C24   C34   S    
N29   Ni6   S    
C70   C74   S    
C5    C69   A    
C105  Cl8   S    
C93   H27   S    
C51   C57   A    
C77   H16   S    
C106  H44   S    
N27   Ni4   S    
C100  H43   S    
C43   C48   A    
C97   C102  A    
N21   Ni7   S    
C81   C85   A    
C14   C62   S    
C104  Cl7   S    
C20   C34   S    
C53   N28   A    
N9    Ni5   S    
C79   C94   S    
C107  H46   S    
C83   C95   S    
C87   C92   A    
C73   C75   S    
C7    H57   S    
C29   C39   S    
N5    N14   A    
C1    C12   A    
C13   C108  A    
C16   C47   A    
C72   I2    S    
C76   H15   S    
C60   C64   A    
C52   Cl4   S    
C9    N24   A    
C94   H28   S    
C5    N19   A    
C63   C67   A    
C75   H14   S    
C82   C96   S    
C62   C66   A    
C92   H26   S    
C34   C39   S    
C97   H40   S    
C84   C88   A    
C28   C32   S    
C112  N16   A    
C107  N10   A    
C86   C90   A    
C78   H21   S    
C79   C81   A    
C12   C63   S    
C30   C34   S    
C54   N29   A    
C54   H32   S    
C23   H56   S    
C68   C73   S    
C82   C86   A    
C45   C69   S    
C46   C51   A    
C51   Cl3   S    
C39   H4    S    
C17   C86   S    
N32   Ni2   S    
C50   Cl2   S    
C103  N6    A    
C23   C31   S    
C13   C99   A    
C1    N1    A    
N7    Ni8   S    
C30   H65   S    
C109  H48   S    
C8    H58   S    
C71   H9    S    
C99   H42   S    
C81   C93   S    
C11   C16   A    
C26   C33   S    
C90   C92   A    
C66   C71   S    
C40   C44   A    
C8    C12   A    
C7    C91   A    
C13   C87   S    
N14   Ni1   S    
C49   Cl1   S    
N18   Ni6   S    
C110  N14   A    
C73   I3    S    
C32   C37   S    
C71   I1    S    
C109  N13   A    
C9    H59   S    
C11   N26   A    
C7    N21   A    
C74   C76   S    
C56   H35   S    
C55   N30   A    
C95   H29   S    
N28   Ni5   S    
N8    Ni7   S    
C108  H47   S    
N30   Ni7   S    
C26   C30   S    
C94   H37   S    
N11   Ni7   S    
C4    H53   S    
C27   C31   S    
N17   Ni4   S    
C6    C80   A    
C104  N7    A    
C31   C35   S    
C3    C21   A    
C103  Cl6   S    
C23   C28   S    
N12   Ni2   S    
C78   H17   S    
C111  N15   A    
C15   C36   A    
C71   C77   S    
C98   H41   S    
N31   Ni8   S    
C26   H67   S    
C42   C66   A    
C76   H19   S    
C43   C78   S    
C55   H33   S    
C85   C89   A    
N19   Ni5   S    
C35   C37   S    
N6    N15   A    
C74   I4    S    
C28   H63   S    
C93   H36   S    
N1    N22   A    
C18   C110  A    
N13   Ni8   S    
C75   H18   S    
C17   C109  A    
C56   N31   A    
C53   C58   A    
C40   C75   S    
C72   H10   S    
C20   C104  A    
N24   Ni1   S    
C19   C111  A    
C90   H25   S    
C89   H24   S    
N12   N24   A    
N2    N10   A    
C59   C63   A    
N8    N17   A    
C97   N32   A    
N10   Ni6   S    
C22   C27   S    
C111  H50   S    
C10   H60   S    
C21   C33   S    
C47   H34   S    
C27   H62   S    
C101  Cl5   S    
N16   Ni3   S    
C106  N9    A    
C46   C80   S    
C55   C80   A    
N21   N31   A    
N26   N27   A    
C79   C84   A    
C54   C69   A    
C47   N27   A    
C45   C50   A    
C27   C37   S    
C96   H30   S    
C60   H7    S    
N7    N16   A    
C102  C106  A    
C61   H8    S    
N23   Ni3   S    
C14   C25   A    
N22   Ni2   S    
C17   C100  A    
C1    H1    S    
N4    Ni3   S    
N25   Ni4   S    
N1    Ni1   S    
C37   H2    S    
C110  H49   S    
C61   C65   A    
C48   C52   A    
C96   H39   S    
C18   C32   S    
C88   C89   A    
C2    C98   A    
C42   C77   S    
C43   C67   A    
C82   C83   A    
C40   C68   A    
C38   H3    S    
C4    C58   A    
C53   H31   S    
C50   C61   A    
C41   C45   A    
C22   C23   S    
C33   C38   S    
C16   C64   S    
N9    N32   A    
C25   H12   S    
C18   C101  A    
C21   C105  A    
C85   C102  S    
N3    N11   A    
C10   N25   A    
C41   C70   A    
C41   C76   S    
N19   N29   A    
