data_mof_unit_pretest_338.cif
_audit_creation_date              2013-03-05T15:40:17-0500
_audit_creation_method            fapswitch 2.2
_symmetry_space_group_name_H-M    P1
_symmetry_Int_Tables_number       1
_space_group_crystal_system       triclinic
_cell_length_a                    10.740359
_cell_length_b                    8.680892
_cell_length_c                    7.45589
_cell_angle_alpha                 103.008935
_cell_angle_beta                  93.923951
_cell_angle_gamma                 92.380812
_cell_volume                      674.567062998

loop_
_atom_site_label
_atom_site_type_symbol
_atom_site_description
_atom_site_fract_x
_atom_site_fract_y
_atom_site_fract_z
_atom_type_partial_charge
O1    O     O_R   0.509050 0.286130 0.619770 -0.589574
O2    O     O_R   0.485540 0.256780 0.308360 -0.566416
C1    C     C_R   0.496355 0.199756 0.453247 0.905122
O3    O     O_R   0.331410 0.514680 0.655740 -0.594041
O4    O     O_R   0.307900 0.485330 0.344330 -0.577796
C2    C     C_R   0.263023 0.501833 0.503049 0.794156
Cu1   Cu    Cu3+1 0.513920 0.517380 0.684380 0.973247
Cu2   Cu    Cu3+1 0.486080 0.482620 0.315620 0.995300
O5    O     O_R   0.514460 0.743220 0.691640 -0.591098
O6    O     O_R   0.490950 0.713870 0.380230 -0.585086
O7    O     O_R   0.692100 0.514670 0.655670 -0.581719
O8    O     O_R   0.668590 0.485320 0.344260 -0.544932
C3    C     C_R   0.504025 0.800253 0.546735 0.849189
C4    C     C_R   0.737099 0.497873 0.496740 0.849166
H1    H     H_    0.105297 0.260649 0.370722 0.172973
C5    C     C_R   0.144566 0.791097 0.661157 -0.157642
H2    H     H_    0.245602 0.796903 0.669198 0.135110
C6    C     C_R   0.086009 0.929957 0.730799 -0.128368
H3    H     H_    0.141568 0.038577 0.790810 0.135905
C7    C     C_R   0.956180 0.929338 0.722243 -0.028182
H4    H     H_    0.910952 0.037561 0.775397 0.164657
C8    C     C_R   0.884251 0.789964 0.643575 -0.105796
H5    H     H_    0.783709 0.795775 0.636946 0.130419
C9    C     C_R   0.941692 0.647256 0.573198 0.035204
C10   C     C_R   0.073334 0.648278 0.582302 0.099456
C11   C     C_R   0.129906 0.506727 0.508808 -0.139764
C12   C     C_R   0.059077 0.367464 0.427929 -0.265403
C13   C     C_R   0.929699 0.363956 0.417980 0.330159
C14   C     C_R   0.870997 0.504063 0.491693 -0.209610
C15   C     C_2   0.494889 0.031794 0.427025 -0.313677
H6    H     H_    0.484555 0.960109 0.286426 0.183661
C16   C     C_2   0.505996 0.968230 0.572972 -0.371310
H7    H     H_    0.516390 0.039901 0.713576 0.187976
N1    N     N_2   0.465100 0.456430 0.038520 -0.208512
H8    H     H_    0.402320 0.378120 0.948877 0.223490
N2    N     N_2   0.534900 0.543570 0.961480 -0.205885
H9    H     H_    0.597702 0.621853 0.051116 0.237136
N3    N     N_R   0.860054 0.216338 0.337950 0.103596
O9    O     O_R   0.768308 0.209733 0.212659 -0.356456
O10   O     O_R   0.901881 0.084383 0.365754 -0.384655

loop_
_geom_bond_atom_site_label_1
_geom_bond_atom_site_label_2
_geom_bond_distance
_ccdc_geom_bond_type
O4    Cu2   1.940676 S    
C15   C16   1.326968 D    
C1    C15   1.426091 S    
Cu1   N2    2.022743 S    
C3    C16   1.425997 S    
N1    N2    1.292908 D    
C13   N3    1.439694 S    
Cu2   O8    1.955829 S    
C16   H7    1.087713 S    
O2    C1    1.286024 A    
Cu1   Cu2   2.691899 S    
C5    C6    1.394317 A    
Cu2   N1    2.022743 S    
C9    C10   1.410428 A    
N3    O10   1.301487 A    
C11   C12   1.391570 A    
C2    C11   1.435409 S    
O3    Cu1   1.955828 S    
O4    C2    1.288700 A    
O3    C2    1.292120 A    
C13   C14   1.410336 A    
C7    C8    1.394821 A    
C6    H3    1.082660 S    
C6    C7    1.391228 A    
C15   H6    1.087719 S    
O7    C4    1.290520 A    
C8    C9    1.416264 A    
C4    C14   1.440261 S    
C5    C10   1.414054 A    
N3    O9    1.300814 A    
C7    H4    1.082725 S    
Cu2   O6    1.953748 S    
N1    H8    1.029168 S    
C12   C13   1.385163 A    
Cu1   O5    1.948776 S    
O5    C3    1.285999 A    
C8    H5    1.081399 S    
N2    H9    1.029170 S    
Cu1   O7    1.940677 S    
O1    Cu1   1.953750 S    
C10   C11   1.408479 A    
C9    C14   1.417502 A    
H1    C12   1.085040 S    
O2    Cu2   1.948778 S    
O8    C4    1.291840 A    
C5    H2    1.081149 S    
O1    C1    1.292877 A    
O6    C3    1.292870 A    
