data_mof_unit_pretest_1379.cif
_audit_creation_date              2013-03-05T16:41:25-0500
_audit_creation_method            fapswitch 2.2
_symmetry_space_group_name_H-M    P1
_symmetry_Int_Tables_number       1
_space_group_crystal_system       triclinic
_cell_length_a                    10.650429
_cell_length_b                    10.718664
_cell_length_c                    9.926774
_cell_angle_alpha                 91.032602
_cell_angle_beta                  100.976083
_cell_angle_gamma                 93.599281
_cell_volume                      1109.77989573

loop_
_atom_site_label
_atom_site_type_symbol
_atom_site_description
_atom_site_fract_x
_atom_site_fract_y
_atom_site_fract_z
_atom_type_partial_charge
O1    O     O_R   0.500020 0.316790 0.614700 -0.581261
O2    O     O_R   0.500000 0.316760 0.385350 -0.619693
C1    C     C_R   0.510071 0.261073 0.500039 0.954591
O3    O     O_R   0.317820 0.500020 0.571850 -0.521422
O4    O     O_R   0.317800 0.499980 0.342510 -0.638851
C2    C     C_R   0.258556 0.502023 0.445541 0.964361
Zn1   Zn    Zn3+2 0.500010 0.500020 0.653140 1.092732
Zn2   Zn    Zn3+2 0.499990 0.499980 0.346860 1.015245
O5    O     O_R   0.500000 0.683240 0.614650 -0.612156
O6    O     O_R   0.499980 0.683210 0.385300 -0.657964
O7    O     O_R   0.682200 0.500020 0.657490 -0.607707
O8    O     O_R   0.682180 0.499980 0.428150 -0.585096
C3    C     C_R   0.504851 0.740501 0.501829 0.925559
C4    C     C_R   0.741394 0.513715 0.555299 0.867385
C5    C     C_2   0.120261 0.512852 0.421531 0.073808
C6    C     C_2   0.074556 0.603306 0.493129 0.288216
C7    C     C_2   0.878582 0.554241 0.585658 0.092005
C8    C     C_2   0.935183 0.607280 0.487256 0.271269
C9    C     C_R   0.581932 0.072464 0.620680 -0.052388
C10   C     C_R   0.541106 0.132615 0.498491 -0.186368
C11   C     C_R   0.528176 0.062229 0.373493 0.449607
C12   C     C_R   0.515378 0.933260 0.377301 -0.101524
H1    H     H_    0.492438 0.880953 0.280298 0.229771
C13   C     C_R   0.526877 0.873696 0.503632 -0.136466
C14   C     C_R   0.576453 0.944554 0.623598 -0.134298
C15   C     C_3   0.557599 0.947022 0.770625 0.575561
C16   C     C_3   0.564592 0.090101 0.765769 0.042362
H2    H     H_    0.475523 0.132112 0.777154 0.175016
C17   C     C_R   0.438437 0.404141 0.057238 0.030927
N1    N     N_R   0.499160 0.499140 0.142600 -0.221942
C18   C     C_R   0.575527 0.584895 0.087573 0.505591
C19   C     C_R   0.578938 0.582001 0.946357 0.571161
N2    N     N_R   0.499160 0.499180 0.856960 -0.196064
C20   C     C_R   0.438259 0.402967 0.914938 -0.074456
C21   C     C_3   0.298028 0.357715 0.885490 0.420816
C22   C     C_3   0.301605 0.359391 0.041404 0.169664
H3    H     H_    0.240654 0.428593 0.077813 0.162592
O9    O     O_3   0.862089 0.656925 0.373977 -0.723068
H4    H     H_    0.920169 0.694726 0.316402 0.391473
N3    N     N_R   0.677520 0.151646 0.855517 0.242093
O10   O     O_R   0.767974 0.210071 0.804748 -0.283787
O11   O     O_R   0.680925 0.159664 0.987066 -0.279429
O12   O     O_3   0.650169 0.678340 0.165822 -0.643350
H5    H     H_    0.650552 0.659886 0.261614 0.403608
O13   O     O_3   0.668182 0.662655 0.904701 -0.626979
H6    H     H_    0.656356 0.657365 0.804714 0.371729
N4    N     N_R   0.215874 0.449629 0.814984 0.211194
O14   O     O_R   0.232897 0.567285 0.853195 -0.309886
O15   O     O_R   0.128201 0.414089 0.709160 -0.321506
N5    N     N_R   0.272381 0.234113 0.814293 0.234172
O16   O     O_R   0.280593 0.225861 0.685389 -0.353979
O17   O     O_R   0.207183 0.144300 0.862305 -0.199374
O18   O     O_3   0.290810 0.241380 0.098148 -0.602050
H7    H     H_    0.287212 0.256779 0.196094 0.391039
O19   O     O_3   0.158729 0.694732 0.566873 -0.668187
H8    H     H_    0.107776 0.760361 0.597170 0.402960
N6    N     N_R   0.942277 0.561162 0.727375 0.236391
O20   O     O_R   0.998292 0.667090 0.779874 -0.286474
O21   O     O_R   0.916222 0.474791 0.810388 -0.238318
N7    N     N_R   0.038642 0.419799 0.333274 0.192622
O22   O     O_R   0.930733 0.447454 0.257884 -0.294753
O23   O     O_R   0.080317 0.310324 0.315393 -0.328569
O24   O     O_3   0.518392 0.114496 0.246656 -0.652978
H9    H     H_    0.591079 0.178282 0.253782 0.380371
N8    N     N_R   0.431663 0.893421 0.787699 0.250471
O25   O     O_R   0.421595 0.823512 0.891378 -0.259695
O26   O     O_R   0.327984 0.921239 0.704371 -0.322841
O27   O     O_3   0.658849 0.901084 0.865087 -0.632785
H10   H     H_    0.740036 0.917781 0.831132 0.369306

loop_
_geom_bond_atom_site_label_1
_geom_bond_atom_site_label_2
_geom_bond_distance
_ccdc_geom_bond_type
O4    Zn2   1.932645 S    
N5    O17   1.301806 A    
O19   H8    0.991087 S    
N6    O20   1.300728 A    
C17   N1    1.360397 A    
C9    C16   1.496681 S    
C19   O13   1.371549 S    
C18   C19   1.409027 A    
C21   C22   1.540677 S    
C4    C7    1.470469 S    
C16   N3    1.465128 S    
Zn2   O8    1.954499 S    
C21   N4    1.458057 S    
Zn2   N1    2.025832 S    
C21   N5    1.475342 S    
N3    O11   1.300576 A    
C7    C8    1.357205 D    
C8    O9    1.376194 S    
C6    O19   1.383415 S    
C15   O27   1.408133 S    
C1    C10   1.436534 S    
N4    O15   1.299202 A    
O1    Zn1   1.993955 S    
O18   H7    0.991590 S    
C19   N2    1.373789 A    
N7    O23   1.301282 A    
Zn1   O7    1.932644 S    
Zn1   N2    2.025198 S    
C17   C22   1.483530 S    
C15   C16   1.532815 S    
N1    C18   1.377757 A    
C18   O12   1.369447 S    
O3    Zn1   1.954499 S    
O3    C2    1.293162 A    
C22   H3    1.114612 S    
C14   C15   1.510654 S    
O8    C4    1.300390 A    
N2    C20   1.376603 A    
O2    C1    1.284519 A    
N8    O25   1.300755 A    
O12   H5    0.974048 S    
O4    C2    1.300512 A    
C9    C14   1.369669 A    
O7    C4    1.298211 A    
C12   C13   1.405513 A    
C13   C14   1.396927 A    
C11   O24   1.375794 S    
N6    O21   1.302095 A    
C5    C6    1.359515 D    
O24   H9    0.991317 S    
N4    O14   1.301928 A    
O13   H6    0.976580 S    
O9    H4    0.992448 S    
C10   C11   1.419843 A    
C6    C8    1.477723 S    
C20   C21   1.512950 S    
C5    N7    1.444871 S    
C16   H2    1.099122 S    
Zn1   O5    2.007445 S    
O5    C3    1.294788 A    
C12   H1    1.083984 S    
N3    O10   1.301829 A    
C22   O18   1.400937 S    
N5    O16   1.300906 A    
C2    C5    1.458940 S    
C11   C12   1.382444 A    
C15   N8    1.466684 S    
N8    O26   1.301863 A    
C17   C20   1.412043 A    
O27   H10   0.993500 S    
Zn2   O6    1.993954 S    
O2    Zn2   2.007448 S    
C9    C10   1.392312 A    
C3    C13   1.431445 S    
C7    N6    1.439193 S    
N7    O22   1.300776 A    
O1    C1    1.301373 A    
O6    C3    1.290518 A    
