data_mof_unit_pretest_485.cif
_audit_creation_date              2012-12-10T18:28:23-0500
_audit_creation_method            fapswitch 2.2
_symmetry_space_group_name_H-M    P1
_symmetry_Int_Tables_number       1
_space_group_crystal_system       triclinic
_cell_length_a                    23.032332
_cell_length_b                    20.525515
_cell_length_c                    14.983165
_cell_angle_alpha                 88.33943
_cell_angle_beta                  99.569729
_cell_angle_gamma                 90.795335
_cell_volume                      6981.4987999

loop_
_atom_site_label
_atom_site_type_symbol
_atom_type_description
_atom_site_fract_x
_atom_site_fract_y
_atom_site_fract_z
_atom_type_partial_charge
C1    C     C_R   0.576446 0.086287 0.553452 0.898697
C2    C     C_R   0.427041 0.909926 0.449259 0.889026
C3    C     C_R   0.425360 0.088285 0.446266 0.906913
C4    C     C_R   0.574505 0.911639 0.553656 0.909932
C5    C     C_R   0.076446 0.586287 0.553452 0.898698
C6    C     C_R   0.927041 0.409926 0.449259 0.889026
C7    C     C_R   0.925360 0.588285 0.446266 0.906915
C8    C     C_R   0.074505 0.411639 0.553656 0.909930
C9    C     C_R   0.252119 0.230215 0.668576 0.587982
C10   C     C_R   0.745046 0.766969 0.329629 0.617693
C11   C     C_R   0.826439 0.158114 0.402875 0.594731
C12   C     C_R   0.264298 0.757210 0.677440 0.622866
C13   C     C_R   0.752121 0.730217 0.668577 0.587977
C14   C     C_R   0.245044 0.266967 0.329628 0.617686
C15   C     C_R   0.326436 0.658116 0.402869 0.594736
C16   C     C_R   0.764296 0.257213 0.677438 0.622866
C17   C     C_R   0.628700 0.984642 0.205137 -0.114088
C18   C     C_R   0.370327 0.006848 0.795425 -0.205137
C19   C     C_R   0.128700 0.484639 0.205137 -0.114096
C20   C     C_R   0.870328 0.506851 0.795425 -0.205137
C21   C     C_R   0.607086 0.989879 0.285396 0.180841
C22   C     C_R   0.391926 0.002257 0.714849 0.149563
C23   C     C_R   0.107086 0.489877 0.285396 0.180837
C24   C     C_R   0.891926 0.502259 0.714849 0.149563
C25   C     C_R   0.510212 0.005766 0.206564 0.054133
C26   C     C_R   0.490185 0.997904 0.793199 0.091596
C27   C     C_R   0.010212 0.505767 0.206564 0.054136
C28   C     C_R   0.990185 0.497903 0.793199 0.091594
C29   C     C_R   0.529700 0.005164 0.122807 0.022969
C30   C     C_R   0.470659 0.995766 0.876792 0.030076
C31   C     C_R   0.029700 0.505163 0.122807 0.022967
C32   C     C_R   0.970658 0.495766 0.876792 0.030077
C33   C     C_R   0.589545 0.989839 0.123446 0.066872
C34   C     C_R   0.410220 0.006925 0.876633 0.099099
C35   C     C_R   0.089544 0.489836 0.123446 0.066885
C36   C     C_R   0.910220 0.506926 0.876633 0.099102
C37   C     C_R   0.490740 0.011966 0.039418 -0.069805
C38   C     C_R   0.509786 0.989496 0.959775 -0.081197
C39   C     C_R   0.990740 0.511966 0.039418 -0.069806
C40   C     C_R   0.009786 0.489494 0.959775 -0.081194
C41   C     C_R   0.567049 0.962095 0.966583 0.365143
C42   C     C_R   0.432926 0.038192 0.032069 0.369087
C43   C     C_R   0.067047 0.462092 0.966583 0.365128
C44   C     C_R   0.932926 0.538193 0.032069 0.369087
C45   C     C_R   0.607938 0.970945 0.044627 -0.181903
C46   C     C_R   0.391683 0.026284 0.955164 -0.211467
C47   C     C_R   0.107937 0.470941 0.044627 -0.181906
C48   C     C_R   0.891684 0.526287 0.955163 -0.211466
C49   C     C_R   0.614766 0.858080 0.583944 -0.158871
C50   C     C_R   0.384373 0.141248 0.415546 -0.161407
C51   C     C_R   0.399476 0.846086 0.431229 -0.131932
C52   C     C_R   0.623429 0.132249 0.586407 -0.158752
C53   C     C_R   0.114765 0.358080 0.583943 -0.158871
C54   C     C_R   0.884374 0.641249 0.415547 -0.161408
C55   C     C_R   0.899476 0.346086 0.431230 -0.131934
C56   C     C_R   0.123430 0.632249 0.586408 -0.158756
C57   C     C_R   0.656157 0.774305 0.693234 0.473444
C58   C     C_R   0.341191 0.223350 0.304858 0.481284
C59   C     C_R   0.397776 0.740852 0.359650 0.429047
C60   C     C_R   0.659717 0.225843 0.673751 0.484594
C61   C     C_R   0.156155 0.274304 0.693233 0.473444
C62   C     C_R   0.841192 0.723351 0.304859 0.481283
C63   C     C_R   0.897778 0.240851 0.359654 0.429043
C64   C     C_R   0.159720 0.725840 0.673756 0.484593
C65   C     C_R   0.614356 0.823060 0.665438 -0.164899
C66   C     C_R   0.383780 0.175475 0.333201 -0.174316
C67   C     C_R   0.417974 0.805360 0.368331 -0.244255
C68   C     C_R   0.614462 0.181675 0.644049 -0.229123
C69   C     C_R   0.114355 0.323059 0.665438 -0.164902
C70   C     C_R   0.883781 0.675475 0.333202 -0.174316
C71   C     C_R   0.917974 0.305359 0.368333 -0.244257
C72   C     C_R   0.114464 0.681672 0.644053 -0.229122
C73   C     C_R   0.652124 0.839283 0.525898 -0.060809
C74   C     C_R   0.346957 0.159943 0.473616 -0.091994
C75   C     C_R   0.362710 0.821516 0.488600 -0.067282
C76   C     C_R   0.677347 0.127041 0.557305 -0.073194
C77   C     C_R   0.152123 0.339282 0.525897 -0.060808
C78   C     C_R   0.846959 0.659945 0.473616 -0.091993
C79   C     C_R   0.862710 0.321516 0.488600 -0.067282
C80   C     C_R   0.177347 0.627040 0.557304 -0.073189
C81   C     C_R   0.688724 0.786176 0.546751 0.002575
C82   C     C_R   0.309133 0.211999 0.451840 0.025320
C83   C     C_R   0.345214 0.756196 0.486619 0.016864
C84   C     C_R   0.719464 0.176765 0.570762 0.023309
C85   C     C_R   0.188722 0.286175 0.546750 0.002576
C86   C     C_R   0.809134 0.712001 0.451840 0.025320
C87   C     C_R   0.845214 0.256196 0.486621 0.016867
C88   C     C_R   0.219464 0.676765 0.570761 0.023309
C89   C     C_R   0.698010 0.760604 0.636636 -0.183059
C90   C     C_R   0.299336 0.236890 0.361570 -0.195611
C91   C     C_R   0.357924 0.716865 0.416698 -0.171271
C92   C     C_R   0.713956 0.221845 0.640040 -0.209543
C93   C     C_R   0.198008 0.260602 0.636635 -0.183060
C94   C     C_R   0.799338 0.736892 0.361571 -0.195612
C95   C     C_R   0.857926 0.216864 0.416702 -0.171263
C96   C     C_R   0.213958 0.721843 0.640043 -0.209543
C97   C     C_R   0.721831 0.764288 0.482788 -0.169414
C98   C     C_R   0.275776 0.233714 0.515668 -0.129446
C99   C     C_R   0.310021 0.731910 0.548619 -0.199927
C100  C     C_R   0.767222 0.183242 0.520067 -0.119176
C101  C     C_R   0.221830 0.264286 0.482788 -0.169414
C102  C     C_R   0.775778 0.733716 0.515668 -0.129445
C103  C     C_R   0.810021 0.231911 0.548620 -0.199926
C104  C     C_R   0.267221 0.683242 0.520065 -0.119184
C105  C     C_R   0.294003 0.225587 0.611136 0.242216
C106  C     C_R   0.703467 0.772502 0.387396 0.226506
C107  C     C_R   0.774795 0.147961 0.440445 0.284685
C108  C     C_R   0.313803 0.758333 0.635576 0.238359
C109  C     C_R   0.794005 0.725590 0.611137 0.242211
C110  C     C_R   0.203465 0.272499 0.387395 0.226503
C111  C     C_R   0.274792 0.647964 0.440440 0.284734
C112  C     C_R   0.813802 0.258336 0.635576 0.238358
H1    H     H_    0.345814 0.132493 0.535944 0.196147
H2    H     H_    0.654209 0.867413 0.464416 0.198495
H3    H     H_    0.685931 0.082590 0.526684 0.225409
H4    H     H_    0.347276 0.853971 0.535086 0.181308
H5    H     H_    0.845816 0.632495 0.535945 0.196146
H6    H     H_    0.154208 0.367412 0.464415 0.198491
H7    H     H_    0.185930 0.582591 0.526680 0.225415
H8    H     H_    0.847275 0.353972 0.535085 0.181308
H9    H     H_    0.415799 0.164308 0.290882 0.256903
H10   H     H_    0.582218 0.834285 0.707515 0.266084
H11   H     H_    0.572240 0.185214 0.666265 0.230292
H12   H     H_    0.448996 0.823860 0.326735 0.213840
H13   H     H_    0.915800 0.664309 0.290882 0.256903
H14   H     H_    0.082217 0.334285 0.707515 0.266086
H15   H     H_    0.072242 0.685210 0.666271 0.230293
H16   H     H_    0.948997 0.323858 0.326737 0.213842
H17   H     H_    0.652540 0.953725 0.047711 0.184793
H18   H     H_    0.346539 0.041647 0.952242 0.182436
H19   H     H_    0.152538 0.453719 0.047712 0.184791
H20   H     H_    0.846540 0.541651 0.952241 0.182437
H21   H     H_    0.536238 0.000473 0.788158 0.166863
H22   H     H_    0.464242 0.006965 0.211774 0.177056
H23   H     H_    0.036238 0.500470 0.788159 0.166860
H24   H     H_    0.964242 0.506967 0.211774 0.177056
H25   H     H_    0.362056 0.003551 0.650969 0.129837
H26   H     H_    0.635308 0.981553 0.349272 0.196431
H27   H     H_    0.862056 0.503554 0.650969 0.129837
H28   H     H_    0.135307 0.481550 0.349272 0.196419
H29   H     H_    0.674558 0.972483 0.207163 0.197997
H30   H     H_    0.323613 0.013795 0.793915 0.180806
H31   H     H_    0.174557 0.472479 0.207163 0.197984
H32   H     H_    0.823613 0.513800 0.793914 0.180805
N1    N     N_R   0.549130 0.000000 0.284090 -0.137107
N2    N     N_R   0.450870 1.000000 0.715910 -0.109606
N3    N     N_R   0.049130 0.500000 0.284090 -0.137102
N4    N     N_R   0.950870 0.500000 0.715910 -0.109606
O1    O     O_R   0.541320 0.066090 0.608930 -0.608918
O2    O     O_R   0.458680 0.933910 0.391070 -0.614939
O3    O     O_R   0.458680 0.066090 0.391070 -0.590955
O4    O     O_R   0.541320 0.933910 0.608930 -0.581102
O5    O     O_R   0.041320 0.566090 0.608930 -0.608918
O6    O     O_R   0.958680 0.433910 0.391070 -0.614939
O7    O     O_R   0.958680 0.566090 0.391070 -0.590956
O8    O     O_R   0.041320 0.433910 0.608930 -0.581105
O9    O     O_R   0.572880 0.066110 0.470280 -0.566699
O10   O     O_R   0.427120 0.933890 0.529720 -0.598259
O11   O     O_R   0.427120 0.066110 0.529720 -0.608774
O12   O     O_R   0.572880 0.933890 0.470280 -0.621158
O13   O     O_R   0.072880 0.566110 0.470280 -0.566697
O14   O     O_R   0.927120 0.433890 0.529720 -0.598257
O15   O     O_R   0.927120 0.566110 0.529720 -0.608776
O16   O     O_R   0.072880 0.433890 0.470280 -0.621161
Zn1   Zn    Zn3+2 0.478910 0.000000 0.592580 1.046277
Zn2   Zn    Zn3+2 0.521090 0.000000 0.407420 1.041923
Zn3   Zn    Zn3+2 0.978910 0.500000 0.592580 1.046276
Zn4   Zn    Zn3+2 0.021090 0.500000 0.407420 1.041923
F1    F     F_    0.268933 0.215809 0.758007 -0.571903
F2    F     F_    0.727943 0.780900 0.240123 -0.544521
F3    F     F_    0.840838 0.113741 0.345191 -0.547579
F4    F     F_    0.267962 0.786136 0.758478 -0.537499
F5    F     F_    0.768935 0.715813 0.758008 -0.571904
F6    F     F_    0.227941 0.280897 0.240122 -0.544523
F7    F     F_    0.340832 0.613745 0.345181 -0.547579
F8    F     F_    0.767958 0.286141 0.758475 -0.537499
S1    S     S_3+6 0.585171 0.900592 0.895092 0.046064
O17   O     O_2   0.530674 0.869538 0.843709 -0.205683
O18   O     O_2   0.622196 0.929121 0.829677 -0.351486
O19   O     O_3   0.623916 0.842368 0.959510 -0.438705
H33   H     H_    0.665595 0.856709 0.965680 0.396557
S2    S     S_3+6 0.414112 0.101518 0.099927 0.038369
O20   O     O_2   0.375807 0.074835 0.164721 -0.344667
O21   O     O_2   0.468199 0.133050 0.151749 -0.238051
O22   O     O_3   0.376500 0.158751 0.031957 -0.448972
H34   H     H_    0.334814 0.144208 0.023619 0.396173
S3    S     S_3+6 0.085167 0.400587 0.895092 0.046088
O23   O     O_2   0.030669 0.369536 0.843708 -0.205667
O24   O     O_2   0.122195 0.429115 0.829680 -0.351487
O25   O     O_3   0.123909 0.342361 0.959511 -0.438650
H35   H     H_    0.165589 0.356701 0.965684 0.396551
S4    S     S_3+6 0.914114 0.601521 0.099927 0.038371
O26   O     O_2   0.875808 0.574839 0.164720 -0.344667
O27   O     O_2   0.968202 0.633052 0.151749 -0.238048
O28   O     O_3   0.876503 0.658755 0.031956 -0.448970
H36   H     H_    0.834817 0.644212 0.023618 0.396174
S5    S     S_3+6 0.651358 0.729204 0.794304 0.141773
O29   O     O_2   0.663660 0.658573 0.781998 -0.237188
O30   O     O_2   0.695803 0.755319 0.870087 -0.171689
O31   O     O_3   0.583471 0.735658 0.820489 -0.465892
H37   H     H_    0.585277 0.712018 0.879448 0.421308
S6    S     S_3+6 0.344948 0.267583 0.202703 0.149422
O32   O     O_2   0.300962 0.239666 0.127767 -0.173743
O33   O     O_2   0.331272 0.338075 0.213306 -0.218384
O34   O     O_3   0.412882 0.262444 0.176351 -0.473572
H38   H     H_    0.410640 0.286047 0.117289 0.420225
S7    S     S_3+6 0.423519 0.694405 0.276156 0.155860
O35   O     O_2   0.451396 0.632930 0.319258 -0.149263
O36   O     O_2   0.372849 0.676906 0.203619 -0.185150
O37   O     O_3   0.474172 0.736343 0.228182 -0.454812
H39   H     H_    0.451300 0.765636 0.181990 0.365828
S8    S     S_3+6 0.643491 0.288350 0.744995 0.118943
O38   O     O_2   0.671874 0.272667 0.840825 -0.182992
O39   O     O_2   0.666587 0.352720 0.714692 -0.225048
O40   O     O_3   0.570265 0.293745 0.741002 -0.511835
H40   H     H_    0.565239 0.328326 0.783773 0.410916
S9    S     S_3+6 0.151356 0.229203 0.794303 0.141768
O41   O     O_2   0.163655 0.158572 0.781995 -0.237234
O42   O     O_2   0.195802 0.255316 0.870087 -0.171653
O43   O     O_3   0.083469 0.235660 0.820489 -0.465881
H41   H     H_    0.085262 0.211975 0.879414 0.421281
S10   S     S_3+6 0.844950 0.767584 0.202704 0.149423
O44   O     O_2   0.800964 0.739668 0.127768 -0.173744
O45   O     O_2   0.831274 0.838077 0.213307 -0.218378
O46   O     O_3   0.912885 0.762446 0.176352 -0.473572
H42   H     H_    0.910643 0.786050 0.117291 0.420225
S11   S     S_3+6 0.923521 0.194403 0.276160 0.155860
O47   O     O_2   0.951400 0.132930 0.319263 -0.149264
O48   O     O_2   0.872850 0.176901 0.203625 -0.185151
O49   O     O_3   0.974171 0.236343 0.228182 -0.454810
H43   H     H_    0.951298 0.265635 0.181990 0.365827
S12   S     S_3+6 0.143495 0.788343 0.745007 0.118942
O50   O     O_2   0.171882 0.772657 0.840835 -0.182991
O51   O     O_2   0.166590 0.852715 0.714707 -0.225048
O52   O     O_3   0.070270 0.793737 0.741021 -0.511837
H44   H     H_    0.065245 0.828316 0.783795 0.410915
S13   S     S_3+6 0.369541 0.227314 0.663088 0.101913
O53   O     O_2   0.408247 0.251980 0.597720 -0.227787
O54   O     O_2   0.377152 0.272080 0.741980 -0.176813
O55   O     O_3   0.391135 0.152313 0.701295 -0.562758
H45   H     H_    0.374206 0.145353 0.757443 0.385129
S14   S     S_3+6 0.627797 0.773567 0.335881 0.106020
O56   O     O_2   0.610970 0.841505 0.302679 -0.284396
O57   O     O_2   0.618667 0.729781 0.255918 -0.142897
O58   O     O_3   0.583330 0.747670 0.408339 -0.511221
H46   H     H_    0.594628 0.701806 0.423662 0.373007
S15   S     S_3+6 0.721884 0.097244 0.374455 0.034143
O59   O     O_2   0.660471 0.122157 0.370750 -0.275113
O60   O     O_2   0.732939 0.094695 0.278454 -0.192223
O61   O     O_3   0.728659 0.021482 0.420697 -0.631126
H47   H     H_    0.767662 0.006510 0.410481 0.397355
S16   S     S_3+6 0.382006 0.784305 0.699263 0.119152
O62   O     O_2   0.381318 0.856864 0.708583 -0.253643
O63   O     O_2   0.389540 0.753020 0.792386 -0.167273
O64   O     O_3   0.439574 0.764298 0.649936 -0.507117
H48   H     H_    0.439509 0.716025 0.650840 0.369908
S17   S     S_3+6 0.869543 0.727317 0.663088 0.101914
O65   O     O_2   0.908249 0.751982 0.597719 -0.227788
O66   O     O_2   0.877154 0.772083 0.741980 -0.176810
O67   O     O_3   0.891137 0.652316 0.701296 -0.562753
H49   H     H_    0.874204 0.645354 0.757441 0.385125
S18   S     S_3+6 0.127795 0.273565 0.335881 0.106020
O68   O     O_2   0.110968 0.341502 0.302679 -0.284399
O69   O     O_2   0.118664 0.229779 0.255918 -0.142893
O70   O     O_3   0.083328 0.247669 0.408340 -0.511223
H50   H     H_    0.094626 0.201804 0.423662 0.373007
S19   S     S_3+6 0.221879 0.597249 0.374448 0.034142
O71   O     O_2   0.160467 0.622161 0.370749 -0.275108
O72   O     O_2   0.232932 0.594705 0.278446 -0.192244
O73   O     O_3   0.228657 0.521486 0.420686 -0.631139
H51   H     H_    0.267646 0.506503 0.410426 0.397370
S20   S     S_3+6 0.882004 0.284309 0.699265 0.119148
O74   O     O_2   0.881315 0.356867 0.708583 -0.253642
O75   O     O_2   0.889536 0.253024 0.792388 -0.167280
O76   O     O_3   0.939572 0.264301 0.649941 -0.507120
H52   H     H_    0.939508 0.216028 0.650845 0.369902

loop_
_geom_bond_atom_site_label_1
_geom_bond_atom_site_label_2
_ccdc_geom_bond_type
C2    O2    A    
C78   C86   A    
C88   C96   A    
C82   C90   A    
C11   F3    S    
O25   H35   S    
C29   C33   A    
C28   H23   S    
C33   C45   A    
C20   H32   S    
C5    C56   S    
O15   Zn3   S    
O76   H52   S    
C6    C55   S    
C53   C69   A    
C67   H12   S    
C76   C84   A    
S18   O70   S    
C79   C87   A    
O4    Zn1   S    
S6    O33   D    
C12   F4    S    
C4    O12   A    
O34   H38   S    
C42   S2    S    
S9    O43   S    
C13   F5    S    
C99   C108  A    
C22   H25   S    
C62   C70   A    
C98   C105  A    
C57   C89   A    
C108  S16   S    
C27   H24   S    
C32   C36   A    
C41   S1    S    
C61   S9    S    
C50   C74   A    
S19   O73   S    
C61   C93   A    
C10   C94   A    
C59   S7    S    
O2    Zn2   S    
C63   C95   A    
C76   H3    S    
C24   N4    A    
C30   C38   A    
C17   H29   S    
S17   O65   D    
C42   C46   A    
C37   C42   A    
S5    O30   D    
S15   O59   D    
S2    O20   D    
C14   C90   A    
S3    O25   S    
C13   C109  A    
C86   C94   A    
C59   C67   A    
C85   C93   A    
C58   C66   A    
C40   C43   A    
C22   N2    A    
O31   H37   S    
S1    O18   D    
S6    O34   S    
C87   C95   A    
S7    O37   S    
S14   O57   D    
O52   H44   S    
C1    O1    A    
C34   C46   A    
O12   Zn2   S    
C43   C47   A    
O70   H50   S    
S18   O68   D    
C97   C102  A    
C52   C68   A    
C81   C89   A    
C112  S20   S    
C16   F8    S    
C62   S10   S    
C99   C104  A    
C80   H7    S    
C35   C47   A    
C83   C99   A    
O58   H46   S    
O5    Zn3   S    
C21   N1    A    
C3    O11   A    
C82   C98   A    
O6    Zn4   S    
O49   H43   S    
C17   C33   A    
C21   H26   S    
C106  S14   S    
C68   H11   S    
C73   C81   A    
O43   H41   S    
C88   C104  A    
C3    C50   S    
O46   H42   S    
O9    Zn2   S    
C48   H20   S    
N1    Zn2   S    
S15   O60   D    
C24   H27   S    
C25   C29   A    
C4    O4    A    
C28   N4    A    
S14   O58   S    
C110  S18   S    
S6    O32   D    
C30   C34   A    
C72   H15   S    
C27   C31   A    
S7    O35   D    
C84   C100  A    
S4    O28   S    
C20   C24   A    
C23   H28   S    
C28   C32   A    
C78   H5    S    
O1    Zn1   S    
C64   C96   A    
C38   C41   A    
C77   H6    S    
C8    O16   A    
C39   C40   A    
C64   S12   S    
C31   C35   A    
S20   O74   D    
C63   S11   S    
S10   O46   S    
C56   C72   A    
C101  C110  A    
C74   H1    S    
C7    O15   A    
C26   N2    A    
S12   O52   S    
C17   C21   A    
C73   H2    S    
O28   H36   S    
C47   H19   S    
C103  C112  A    
S17   O66   D    
S2    O22   S    
C5    O13   A    
C9    F1    S    
C100  C103  A    
S5    O31   S    
C19   C23   A    
O40   H40   S    
C37   C38   A    
C15   C111  A    
C55   C79   A    
S16   O63   D    
S11   O47   D    
C54   C70   A    
S8    O40   S    
O16   Zn4   S    
O7    Zn4   S    
C2    O10   A    
S1    O19   S    
C79   H8    S    
S12   O51   D    
S14   O56   D    
C66   H9    S    
C7    O7    A    
C59   C91   A    
C65   H10   S    
S10   O45   D    
C25   H22   S    
C18   C34   A    
C60   C68   A    
C6    O6    A    
C49   C65   A    
C58   C90   A    
S16   O64   S    
C43   S3    S    
C97   C106  A    
C63   C71   A    
C70   H13   S    
C27   N3    A    
S11   O48   D    
N2    Zn1   S    
S8    O39   D    
C69   H14   S    
S1    O17   D    
C62   C94   A    
C11   C107  A    
C53   C77   A    
C87   C103  A    
C71   H16   S    
C10   C106  A    
S9    O42   D    
O64   H48   S    
C86   C102  A    
C9    C93   A    
C51   C75   A    
C32   C40   A    
C85   C101  A    
O19   H33   S    
C16   C112  A    
C12   C108  A    
C74   C82   A    
S15   O61   S    
C107  S15   S    
C14   C110  A    
C100  C107  A    
C19   H31   S    
C13   C89   A    
C18   C22   A    
C60   S8    S    
C6    O14   A    
C57   C65   A    
O67   H49   S    
C52   C76   A    
C56   C80   A    
C8    C53   S    
C46   H18   S    
C104  C111  A    
S18   O69   D    
S19   O71   D    
C50   C66   A    
C57   S5    S    
C16   C92   A    
C39   C44   A    
C14   F6    S    
C10   F2    S    
O3    Zn2   S    
C83   C91   A    
C3    O3    A    
C2    C51   S    
O8    Zn3   S    
C98   C101  A    
C15   F7    S    
C4    C49   S    
C105  S13   S    
S17   O67   S    
C61   C69   A    
S4    O26   D    
S13   O54   D    
O61   H47   S    
C111  S19   S    
S3    O23   D    
C80   C88   A    
C26   H21   S    
C19   C35   A    
C44   S4    S    
S19   O72   D    
C75   C83   A    
O22   H34   S    
C51   C67   A    
C23   N3    A    
C77   C85   A    
S20   O76   S    
C5    O5    A    
C45   H17   S    
S9    O41   D    
C1    O9    A    
O55   H45   S    
C81   C97   A    
C31   C39   A    
C36   C48   A    
C49   C73   A    
C64   C72   A    
O11   Zn1   S    
C109  S17   S    
S5    O29   D    
C8    O8    A    
C1    C52   S    
S2    O21   D    
S3    O24   D    
O13   Zn4   S    
N3    Zn4   S    
C15   C91   A    
O14   Zn3   S    
C20   C36   A    
S12   O50   D    
S11   O49   S    
C11   C95   A    
S8    O38   D    
C58   S6    S    
S20   O75   D    
O37   H39   S    
S13   O55   S    
C29   C37   A    
S7    O36   D    
N4    Zn3   S    
C41   C45   A    
O73   H51   S    
C12   C96   A    
C102  C109  A    
C25   N1    A    
C75   H4    S    
C84   C92   A    
C7    C54   S    
S13   O53   D    
C60   C92   A    
C9    C105  A    
S10   O44   D    
C55   C71   A    
C44   C48   A    
O10   Zn1   S    
C18   H30   S    
S16   O62   D    
C54   C78   A    
C26   C30   A    
S4    O27   D    
