data_mof_unit_pretest_934.cif
_audit_creation_date              2012-12-10T17:38:16-0500
_audit_creation_method            fapswitch 2.2
_symmetry_space_group_name_H-M    P1
_symmetry_Int_Tables_number       1
_space_group_crystal_system       triclinic
_cell_length_a                    11.962074
_cell_length_b                    12.883483
_cell_length_c                    18.726047
_cell_angle_alpha                 90.378077
_cell_angle_beta                  86.473486
_cell_angle_gamma                 92.596001
_cell_volume                      2877.48875391

loop_
_atom_site_label
_atom_site_type_symbol
_atom_type_description
_atom_site_fract_x
_atom_site_fract_y
_atom_site_fract_z
_atom_type_partial_charge
C1    C     C_R   0.521485 0.700404 0.498467 0.885497
C2    C     C_R   0.561544 0.131684 0.504487 -0.295153
C3    C     C_R   0.446282 0.974701 0.497299 0.190537
C4    C     C_R   0.552973 0.025122 0.501800 0.196668
C5    C     C_R   0.948143 0.368126 0.469644 -0.000171
C6    C     C_R   0.053572 0.633924 0.522485 0.008380
C7    C     C_R   0.832881 0.386761 0.468445 -0.031534
C8    C     C_R   0.167474 0.614730 0.527360 -0.048689
C9    C     C_R   0.861968 0.562035 0.503824 -0.086058
C10   C     C_R   0.138550 0.438800 0.493731 -0.090862
C11   C     C_R   0.978786 0.550311 0.505211 0.032183
C12   C     C_R   0.478413 0.299553 0.501240 0.892191
C13   C     C_R   0.021972 0.451272 0.489602 0.024142
C14   C     C_R   0.499666 0.495208 0.636070 0.910635
C15   C     C_R   0.499696 0.499364 0.364427 0.938358
C16   C     C_R   0.397320 0.434516 0.753277 -0.071718
C17   C     C_R   0.593902 0.511828 0.241668 -0.064935
C18   C     C_R   0.404141 0.380435 0.818128 0.487529
C19   C     C_R   0.609286 0.461397 0.175035 0.492113
C20   C     C_R   0.507239 0.378988 0.850661 -0.128054
C21   C     C_R   0.519699 0.400681 0.147922 -0.123653
C22   C     C_R   0.605024 0.414690 0.812516 -0.343849
C23   C     C_R   0.465449 0.188473 0.501665 -0.049053
C24   C     C_R   0.421884 0.380304 0.191268 -0.346191
C25   C     C_R   0.603023 0.451654 0.742999 0.455391
C26   C     C_R   0.409656 0.420887 0.260327 0.471611
C27   C     C_R   0.498769 0.465279 0.712740 -0.249424
C28   C     C_R   0.498626 0.482185 0.287066 -0.252239
C29   C     C_R   0.519422 0.370546 0.071922 0.333788
C30   C     C_R   0.512115 0.357975 0.927759 0.332962
C31   C     C_3   0.281230 0.463243 0.732560 -0.342231
C32   C     C_3   0.267730 0.580873 0.740105 -0.298432
C33   C     C_3   0.147181 0.609248 0.730930 -0.922752
C34   C     C_R   0.534051 0.811421 0.497530 -0.041668
C35   C     C_3   0.679841 0.595996 0.263302 -0.366300
C36   C     C_3   0.625821 0.700069 0.280366 -0.341988
C37   C     C_3   0.711510 0.780493 0.306918 -0.875028
C38   C     C_3   0.993334 0.261393 0.451673 -0.448398
C39   C     C_3   0.906000 0.175425 0.434043 -0.357461
C40   C     C_3   0.960958 0.072162 0.419099 -0.884504
C41   C     C_3   0.017662 0.745016 0.530715 -0.453524
C42   C     C_3   0.968388 0.766753 0.606516 -0.335870
C43   C     C_3   0.931800 0.878488 0.613780 -0.879073
C44   C     C_3   0.303342 0.227663 0.840978 0.089824
C45   C     C_R   0.649513 0.968327 0.503331 -0.236566
C46   C     C_3   0.250198 0.199428 0.770431 -0.397266
C47   C     C_3   0.237588 0.081959 0.760356 -0.934526
C48   C     C_3   0.777017 0.387344 0.146681 0.108334
C49   C     C_3   0.838241 0.396791 0.216332 -0.406086
C50   C     C_3   0.919903 0.310247 0.222751 -0.960183
C51   C     C_3   0.771675 0.402604 0.690465 0.101355
C52   C     C_3   0.894593 0.440749 0.688374 -0.317094
C53   C     C_3   0.972762 0.353010 0.669199 -0.990086
C54   C     C_3   0.217295 0.425997 0.281801 0.088180
C55   C     C_3   0.200587 0.538235 0.306697 -0.331010
C56   C     C_R   0.349715 0.031518 0.495710 -0.226341
C57   C     C_3   0.084530 0.573302 0.290938 -0.978145
C58   C     C_R   0.640117 0.861121 0.500951 -0.208057
C59   C     C_R   0.359294 0.138826 0.497825 -0.190362
C60   C     C_R   0.437743 0.868098 0.494858 -0.290984
H1    H     H_    0.684983 0.415690 0.836772 0.193740
H2    H     H_    0.824896 0.634744 0.517840 0.147546
H3    H     H_    0.224890 0.677760 0.541032 0.147518
H4    H     H_    0.773948 0.326003 0.453710 0.143168
H5    H     H_    0.120842 0.584537 0.677400 0.269793
H6    H     H_    0.089983 0.571260 0.772858 0.268802
H7    H     H_    0.141049 0.694632 0.736464 0.248945
H8    H     H_    0.291034 0.606664 0.794226 0.227628
H9    H     H_    0.323767 0.624072 0.700068 0.231383
H10   H     H_    0.262632 0.433823 0.678702 0.206631
H11   H     H_    0.214063 0.425118 0.767950 0.237905
H12   H     H_    0.355294 0.329826 0.171979 0.179093
H13   H     H_    0.746409 0.752990 0.356714 0.262200
H14   H     H_    0.780897 0.794902 0.265499 0.259920
H15   H     H_    0.670294 0.854723 0.318785 0.257541
H16   H     H_    0.590425 0.729830 0.231354 0.226724
H17   H     H_    0.556558 0.690579 0.322305 0.208476
H18   H     H_    0.725602 0.570134 0.309206 0.217685
H19   H     H_    0.745286 0.611191 0.219548 0.237676
H20   H     H_    0.023762 0.079918 0.373006 0.267118
H21   H     H_    0.002839 0.046625 0.466910 0.257315
H22   H     H_    0.896058 0.011812 0.406021 0.249918
H23   H     H_    0.643410 0.170172 0.508392 0.143227
H24   H     H_    0.843967 0.164714 0.480254 0.208790
H25   H     H_    0.862290 0.197161 0.385985 0.227162
H26   H     H_    0.055278 0.269925 0.405140 0.206650
H27   H     H_    0.037587 0.234882 0.498317 0.203041
H28   H     H_    0.004719 0.933887 0.603062 0.255167
H29   H     H_    0.867000 0.893306 0.575629 0.258301
H30   H     H_    0.895958 0.891966 0.668989 0.256241
H31   H     H_    0.895227 0.712899 0.620264 0.230270
H32   H     H_    0.032875 0.754689 0.645298 0.227116
H33   H     H_    0.091058 0.799818 0.519115 0.195481
H34   H     H_    0.355686 0.829606 0.491405 0.148957
H35   H     H_    0.956862 0.762201 0.490313 0.198822
H36   H     H_    0.250011 0.191814 0.885690 0.178533
H37   H     H_    0.387044 0.193077 0.842641 0.121869
H38   H     H_    0.166151 0.232796 0.770199 0.229174
H39   H     H_    0.303466 0.232364 0.724656 0.215779
H40   H     H_    0.320906 0.047035 0.759185 0.264844
H41   H     H_    0.199256 0.064298 0.708870 0.265276
H42   H     H_    0.182580 0.046732 0.804519 0.263428
H43   H     H_    0.840777 0.384718 0.101069 0.183318
H44   H     H_    0.727115 0.312096 0.145597 0.127493
H45   H     H_    0.284356 0.182622 0.495732 0.155688
H46   H     H_    0.885268 0.472979 0.217772 0.232352
H47   H     H_    0.776463 0.391785 0.263061 0.221661
H48   H     H_    0.875092 0.233028 0.220081 0.268269
H49   H     H_    0.958777 0.317088 0.274989 0.261093
H50   H     H_    0.987197 0.316303 0.179192 0.266588
H51   H     H_    0.751757 0.372627 0.636672 0.167265
H52   H     H_    0.760366 0.336499 0.728806 0.116036
H53   H     H_    0.909372 0.503974 0.648517 0.230628
H54   H     H_    0.913978 0.472709 0.741683 0.223635
H55   H     H_    0.966614 0.293712 0.712211 0.263598
H56   H     H_    0.715090 0.817336 0.502635 0.155756
H57   H     H_    0.060582 0.384698 0.662986 0.265438
H58   H     H_    0.950735 0.315406 0.618165 0.271171
H59   H     H_    0.147567 0.375935 0.306324 0.158051
H60   H     H_    0.210617 0.419778 0.222893 0.129525
H61   H     H_    0.209497 0.544347 0.365126 0.255836
H62   H     H_    0.265384 0.590947 0.279205 0.205961
H63   H     H_    0.073246 0.569513 0.232537 0.269789
H64   H     H_    0.075262 0.654704 0.309424 0.267086
H65   H     H_    0.018477 0.523290 0.319674 0.269424
H66   H     H_    0.731492 0.006500 0.506852 0.142325
H67   H     H_    0.267578 0.993188 0.492493 0.133670
H68   H     H_    0.175972 0.366087 0.480038 0.147053
N1    N     N_R   0.611693 0.367201 0.958749 -0.187854
N2    N     N_R   0.420217 0.355341 0.041202 -0.185704
N3    N     N_R   0.615220 0.373616 0.029360 -0.141902
N4    N     N_R   0.416652 0.349592 0.970592 -0.121671
N5    N     N_R   0.207800 0.519350 0.512860 -0.112947
N6    N     N_R   0.792200 0.480650 0.487140 -0.114112
O1    O     O_R   0.421690 0.658830 0.503430 -0.643590
O2    O     O_3   0.711296 0.474464 0.136149 -0.645486
O3    O     O_3   0.703288 0.487173 0.708519 -0.620690
O4    O     O_3   0.318348 0.388538 0.305401 -0.630304
O5    O     O_R   0.578310 0.341170 0.496570 -0.648923
O6    O     O_R   0.609320 0.646410 0.495180 -0.627101
O7    O     O_R   0.390680 0.353590 0.504820 -0.623624
O8    O     O_R   0.406160 0.506220 0.605990 -0.625152
O9    O     O_R   0.593840 0.493780 0.394010 -0.623770
O10   O     O_R   0.593780 0.493810 0.597740 -0.566340
O11   O     O_R   0.406220 0.506190 0.402260 -0.579401
O12   O     O_3   0.307465 0.336629 0.852390 -0.644700
Zn1   Zn    Zn3+2 0.374720 0.508290 0.505510 0.932182
Zn2   Zn    Zn3+2 0.625280 0.491710 0.494490 0.933371

loop_
_geom_bond_atom_site_label_1
_geom_bond_atom_site_label_2
_ccdc_geom_bond_type
C50   H48   S    
C37   H14   S    
C14   O8    A    
C51   H52   S    
C47   H41   S    
C54   H60   S    
C41   C42   S    
C25   O3    S    
C35   C36   S    
C10   N5    A    
O10   Zn2   S    
O6    Zn2   S    
C55   H61   S    
C33   H5    S    
C49   H47   S    
C20   C30   S    
C52   H53   S    
C16   C31   S    
C23   C59   A    
C12   C23   S    
C33   H7    S    
C59   H45   S    
C38   H26   S    
C43   H28   S    
C36   C37   S    
C19   C21   A    
C24   C26   A    
C39   H24   S    
C36   H17   S    
C57   H65   S    
C38   C39   S    
C53   H57   S    
C48   H44   S    
C50   H50   S    
C12   O7    A    
C18   C20   A    
C42   H31   S    
C3    C56   A    
C56   H67   S    
C36   H16   S    
C46   C47   S    
C31   H10   S    
C41   H33   S    
C31   C32   S    
C22   C25   A    
C33   H6    S    
C44   O12   S    
C40   H20   S    
N2    N4    A    
N5    Zn1   S    
C14   C27   S    
C5    C13   A    
C32   H8    S    
C3    C60   A    
C16   C27   A    
C31   H11   S    
C46   H38   S    
C55   H62   S    
C47   H42   S    
C5    C38   S    
C34   C60   A    
C2    H23   S    
C10   H68   S    
C40   H21   S    
O11   Zn1   S    
C44   C46   S    
C1    C34   S    
C4    C45   A    
O9    Zn2   S    
O5    Zn2   S    
C14   O10   A    
C45   C58   A    
C43   H30   S    
C9    H2    S    
C40   H22   S    
C7    N6    A    
C6    C11   A    
C15   O11   A    
C53   H58   S    
C6    C8    A    
C18   O12   S    
C19   O2    S    
C48   H43   S    
C21   C29   S    
C6    C41   S    
C50   H49   S    
C47   H40   S    
C51   C52   S    
C2    C4    A    
C44   H36   S    
C57   H63   S    
C44   H37   S    
C29   N2    A    
C45   H66   S    
C57   H64   S    
C12   O5    A    
C58   H56   S    
C43   H29   S    
C9    C11   A    
C32   H9    S    
C1    O6    A    
C15   O9    A    
C51   O3    S    
C48   C49   S    
C20   C22   A    
C54   O4    S    
O1    Zn1   S    
C55   C57   S    
C42   C43   S    
C39   H25   S    
C3    C4    A    
C39   C40   S    
C52   C53   S    
C24   H12   S    
C5    C7    A    
C37   H13   S    
C54   C55   S    
C51   H51   S    
C8    N5    A    
C17   C28   A    
O8    Zn1   S    
C48   O2    S    
C26   O4    S    
C10   C13   A    
C49   H46   S    
C52   H54   S    
C25   C27   A    
C30   N1    A    
N6    Zn2   S    
C35   H18   S    
C26   C28   A    
C56   C59   A    
C38   H27   S    
C32   C33   S    
C46   H39   S    
C1    O1    A    
C9    N6    A    
C22   H1    S    
C11   C13   A    
C15   C28   S    
C41   H35   S    
C30   N4    A    
C35   H19   S    
C17   C19   A    
C42   H32   S    
C29   N3    A    
C37   H15   S    
C7    H4    S    
O7    Zn1   S    
C8    H3    S    
C16   C18   A    
C49   C50   S    
C21   C24   A    
C2    C23   A    
C34   C58   A    
C17   C35   S    
C54   H59   S    
C53   H55   S    
N1    N3    A    
C60   H34   S    
