data_mof_unit_pretest_1948.cif
_audit_creation_date              2012-12-10T18:24:11-0500
_audit_creation_method            fapswitch 2.2
_symmetry_space_group_name_H-M    P1
_symmetry_Int_Tables_number       1
_space_group_crystal_system       triclinic
_cell_length_a                    16.094037
_cell_length_b                    16.085091
_cell_length_c                    16.084988
_cell_angle_alpha                 95.84804
_cell_angle_beta                  84.452413
_cell_angle_gamma                 90.088704
_cell_volume                      4122.76856037

loop_
_atom_site_label
_atom_site_type_symbol
_atom_type_description
_atom_site_fract_x
_atom_site_fract_y
_atom_site_fract_z
_atom_type_partial_charge
C1    C     C_R   0.510606 0.724338 0.510695 0.510519
C2    C     C_1   0.485659 0.186189 0.484979 0.026164
C3    C     C_1   0.515694 0.482420 0.184571 -0.023035
C4    C     C_R   0.489360 0.275652 0.489292 0.502850
C5    C     C_2   0.525994 0.468995 0.017429 0.277253
C6    C     C_2   0.481267 0.522909 0.980956 -0.074163
C7    C     C_1   0.483267 0.519783 0.890755 0.008368
C8    C     C_1   0.520170 0.476745 0.108920 -0.083598
C9    C     C_1   0.485605 0.516505 0.815334 0.027020
C10   C     C_R   0.510659 0.488221 0.274541 0.507700
C11   C     C_R   0.489313 0.511795 0.725477 0.505783
C12   C     C_1   0.111231 0.520976 0.520946 -0.009365
C13   C     C_R   0.724311 0.488115 0.488203 0.507654
C14   C     C_R   0.275698 0.511869 0.511836 0.507977
C15   C     C_1   0.813660 0.483056 0.483270 -0.003200
C16   C     C_2   0.979771 0.473354 0.473693 0.290875
C17   C     C_2   0.020214 0.526333 0.526296 0.302854
C18   C     C_3   0.022509 0.635398 0.634587 -0.119723
C19   C     C_3   0.977685 0.364182 0.365198 -0.014292
C20   C     C_3   0.034461 0.304501 0.305949 -0.358032
C21   C     C_3   0.618063 0.975432 0.632213 0.000010
C22   C     C_3   0.669019 0.030977 0.690087 -0.364668
C23   C     C_1   0.888767 0.478699 0.478983 -0.016110
C24   C     C_3   0.618255 0.355442 0.012056 -0.000478
C25   C     C_3   0.669277 0.292221 0.951109 -0.364476
C26   C     C_1   0.186341 0.516685 0.516653 -0.003714
C27   C     C_1   0.515622 0.813777 0.515986 -0.022531
C28   C     C_2   0.525921 0.979826 0.528328 0.276568
C29   C     C_2   0.481304 0.021030 0.479051 -0.074760
C30   C     C_1   0.483316 0.111017 0.481956 0.007759
C31   C     C_1   0.520095 0.888953 0.521195 -0.083598
H1    H     H_    0.442437 0.987218 0.435603 0.077063
H2    H     H_    0.078357 0.340335 0.265850 0.166821
H3    H     H_    0.661721 0.931666 0.591288 0.138922
H4    H     H_    0.573230 0.939767 0.671848 0.137572
H5    H     H_    0.627173 0.075131 0.732306 0.164425
H6    H     H_    0.703154 0.991902 0.728870 0.095085
H7    H     H_    0.714916 0.067106 0.652448 0.166098
H8    H     H_    0.573427 0.320512 0.052429 0.136483
H9    H     H_    0.661868 0.391752 0.051239 0.135949
H10   H     H_    0.715178 0.325040 0.910162 0.167806
H11   H     H_    0.703411 0.249820 0.986567 0.092296
H12   H     H_    0.442312 0.570403 0.018890 0.077423
H13   H     H_    0.627476 0.254431 0.911343 0.164681
H14   H     H_    0.065390 0.674068 0.596266 0.122916
H15   H     H_    0.057742 0.597822 0.674011 0.124016
H16   H     H_    0.980724 0.678746 0.677608 0.147995
H17   H     H_    0.941895 0.402256 0.326588 0.133658
H18   H     H_    0.934217 0.326313 0.403929 0.135234
H19   H     H_    0.070769 0.265068 0.342533 0.167044
H20   H     H_    0.996387 0.263383 0.265074 0.094337
O1    O     O_3   0.500000 0.500000 0.500000 -0.438169
O2    O     O_R   0.689040 0.536050 0.444000 -0.535878
O3    O     O_R   0.315570 0.560650 0.560630 -0.543092
O4    O     O_R   0.679800 0.444450 0.536560 -0.533013
O5    O     O_R   0.315590 0.458850 0.458810 -0.524584
O6    O     O_3   0.973044 0.583726 0.583283 -0.586471
O7    O     O_3   0.026985 0.415982 0.416728 -0.578509
O8    O     O_3   0.575079 0.025983 0.583343 -0.540578
O9    O     O_3   0.575268 0.408865 0.966061 -0.539236
O10   O     O_R   0.458170 0.444480 0.314880 -0.535067
O11   O     O_R   0.445130 0.560630 0.690220 -0.542292
O12   O     O_R   0.559450 0.679320 0.457680 -0.532444
O13   O     O_R   0.537250 0.315570 0.537220 -0.527482
O14   O     O_R   0.458120 0.689530 0.559970 -0.536237
O15   O     O_R   0.445170 0.315580 0.445130 -0.541100
O16   O     O_R   0.559480 0.536070 0.314410 -0.536193
O17   O     O_R   0.537220 0.458810 0.680490 -0.523655
Zn1   Zn    Zn3+2 0.430930 0.430930 0.430910 0.950866
Zn2   Zn    Zn3+2 0.575680 0.561790 0.430230 0.947816
Zn3   Zn    Zn3+2 0.562480 0.430910 0.562480 0.962099
Zn4   Zn    Zn3+2 0.430910 0.576380 0.576380 0.943786

loop_
_geom_bond_atom_site_label_1
_geom_bond_atom_site_label_2
_ccdc_geom_bond_type
C12   C17   S    
C25   H11   S    
C5    C8    S    
C14   O5    A    
C24   C25   S    
C7    C9    T    
C6    C7    S    
O1    Zn4   S    
C20   H20   S    
O14   Zn4   S    
C22   H5    S    
C19   H18   S    
C18   O6    S    
C2    C4    S    
C19   C20   S    
O12   Zn2   S    
C24   O9    S    
C2    C30   T    
O16   Zn2   S    
C18   H16   S    
C11   O11   A    
C15   C23   T    
O11   Zn4   S    
O13   Zn3   S    
C3    C10   S    
C16   O7    S    
C21   C22   S    
C14   C26   S    
C4    O15   A    
C9    C11   S    
C29   C30   S    
O17   Zn3   S    
C21   H4    S    
C20   H2    S    
C18   H15   S    
C25   H13   S    
C28   C29   D    
C24   H9    S    
C16   C23   S    
C21   O8    S    
C29   H1    S    
C13   O2    A    
C6    H12   S    
C13   C15   S    
C19   O7    S    
C12   C26   T    
C5    C6    D    
C3    C8    T    
C10   O10   A    
O1    Zn2   S    
O2    Zn2   S    
O10   Zn1   S    
O15   Zn1   S    
C18   H14   S    
C1    O12   A    
C24   H8    S    
O3    Zn4   S    
C11   O17   A    
C1    C27   S    
O5    Zn1   S    
C28   O8    S    
C25   H10   S    
O1    Zn3   S    
C4    O13   A    
C19   H17   S    
C20   H19   S    
C21   H3    S    
C5    O9    S    
C14   O3    A    
C10   O16   A    
C22   H6    S    
C27   C31   T    
C1    O14   A    
C28   C31   S    
O4    Zn3   S    
C17   O6    S    
C16   C17   D    
C13   O4    A    
O1    Zn1   S    
C22   H7    S    
