data_mof_unit_pretest_1665.cif
_audit_creation_date              2012-10-26T20:25:02-0400
_audit_creation_method            fapswitch 2.2
_symmetry_space_group_name_H-M    P1
_symmetry_Int_Tables_number       1
_space_group_crystal_system       triclinic
_cell_length_a                    19.36844
_cell_length_b                    14.67147
_cell_length_c                    15.911499
_cell_angle_alpha                 90.008794
_cell_angle_beta                  89.968669
_cell_angle_gamma                 89.996723
_cell_volume                      4521.46629312

loop_
_atom_site_label
_atom_site_type_symbol
_atom_type_description
_atom_site_fract_x
_atom_site_fract_y
_atom_site_fract_z
_atom_type_partial_charge
Br1   Br    Br    0.638862 0.587528 0.887365 -0.377258
Br2   Br    Br    0.132105 0.335354 0.399341 -0.389973
Br3   Br    Br    0.373281 0.614815 0.887453 -0.409477
Br4   Br    Br    0.364897 0.400246 0.911913 -0.405621
Br5   Br    Br    0.488183 0.297478 0.887428 -0.427334
Br6   Br    Br    0.502286 0.704465 0.911670 -0.442640
Br7   Br    Br    0.633126 0.395218 0.911673 -0.420665
Br8   Br    Br    0.651883 0.120394 0.487195 -0.475272
Br9   Br    Br    0.652324 0.905575 0.527743 -0.473281
Br10  Br    Br    0.415420 0.119823 0.344474 -0.521443
Br11  Br    Br    0.440229 0.905272 0.327947 -0.527921
Br12  Br    Br    0.868211 0.661056 0.395108 -0.371651
Br13  Br    Br    0.867767 0.338836 0.605533 -0.344491
Br14  Br    Br    0.131890 0.664168 0.600928 -0.382001
C1    C     C_R   0.500114 0.499997 0.339927 0.540161
C2    C     C_3   0.470106 0.401467 0.049814 0.015165
C3    C     C_3   0.461445 0.409136 0.949610 0.280953
C4    C     C_3   0.459871 0.589623 0.949569 0.280326
C5    C     C_1   0.500112 0.499987 0.749065 0.103950
C6    C     C_3   0.500108 0.500020 0.083172 0.034792
C7    C     C_3   0.500111 0.499966 0.916415 0.036091
C8    C     C_R   0.632852 0.500006 0.499925 0.543548
C9    C     C_3   0.579022 0.501168 0.949529 0.279367
C10   C     C_3   0.579742 0.514975 0.049727 0.018655
C11   C     C_1   0.500115 0.499956 0.824308 0.148887
C12   C     C_R   0.930163 0.499748 0.500190 0.393427
C13   C     C_1   0.500107 0.500029 0.175509 -0.058861
C14   C     C_1   0.500110 0.500005 0.250763 -0.042431
C15   C     C_3   0.499066 0.055300 0.600327 0.005011
C16   C     C_3   0.489731 0.944471 0.600647 0.018904
C17   C     C_3   0.565976 0.054904 0.453281 0.151683
C18   C     C_3   0.570387 0.945099 0.462837 0.161103
C19   C     C_3   0.497664 0.092406 0.502889 0.031318
C20   C     C_3   0.497847 0.907488 0.503255 0.033368
C21   C     C_3   0.433247 0.945363 0.446493 0.143993
C22   C     C_3   0.428952 0.055566 0.454197 0.147865
C23   C     C_R   0.181885 0.565438 0.547492 0.153645
C24   C     C_1   0.498172 0.804553 0.502193 0.162145
C25   C     C_1   0.498135 0.195445 0.502081 0.182342
C26   C     C_R   0.500104 0.500002 0.659926 0.552313
C27   C     C_R   0.367253 0.500001 0.499918 0.542512
C28   C     C_R   0.745578 0.560900 0.446903 -0.009244
C29   C     C_R   0.745400 0.439258 0.553439 -0.016853
C30   C     C_R   0.818169 0.564057 0.451065 0.158282
C31   C     C_R   0.817990 0.435887 0.549372 0.159467
C32   C     C_R   0.854261 0.499884 0.500200 0.031484
C33   C     C_R   0.709045 0.500037 0.500067 -0.000675
C34   C     C_R   0.181960 0.434238 0.452647 0.151274
C35   C     C_R   0.069844 0.499716 0.500149 0.394525
C36   C     C_3   0.707112 0.621090 0.385099 -0.324192
C37   C     C_3   0.706745 0.379595 0.615543 -0.289055
C38   C     C_3   0.539369 0.894463 0.665231 -0.320752
C39   C     C_3   0.567440 0.084323 0.645866 -0.331044
C40   C     C_3   0.568976 0.085162 0.359422 -0.310070
C41   C     C_3   0.594530 0.895038 0.380121 -0.307209
C42   C     C_3   0.359300 0.089828 0.492622 -0.330585
C43   C     C_3   0.362513 0.895458 0.462025 -0.324723
C44   C     C_3   0.446011 0.106485 0.658971 -0.368268
C45   C     C_R   0.254479 0.562373 0.551677 -0.019837
C46   C     C_3   0.419004 0.913833 0.640254 -0.376166
C47   C     C_3   0.292886 0.624221 0.612160 -0.304918
C48   C     C_3   0.292993 0.375799 0.387666 -0.313769
C49   C     C_3   0.372824 0.568429 0.073456 -0.343355
C50   C     C_3   0.402432 0.367785 0.096261 -0.332376
C51   C     C_3   0.518896 0.320258 0.073410 -0.344023
C52   C     C_3   0.462224 0.677861 0.096125 -0.329189
C53   C     C_3   0.608594 0.611380 0.073338 -0.348490
C54   C     C_3   0.635695 0.454480 0.096052 -0.336222
C55   C     C_R   0.254542 0.437517 0.448277 -0.025240
C56   C     C_R   0.291005 0.499983 0.499943 -0.006408
C57   C     C_R   0.145745 0.499784 0.500114 0.034609
C58   C     C_3   0.450486 0.583606 0.049784 0.013093
Cu1   Cu    Cu3+1 0.500090 0.589920 0.499910 1.005844
Cu2   Cu    Cu3+1 0.500090 0.410080 0.499910 1.015354
H1    H     H_    0.664927 0.582232 0.354264 0.116541
H2    H     H_    0.613352 0.047217 0.625549 0.226174
H3    H     H_    0.577554 0.158472 0.638551 0.175632
H4    H     H_    0.565245 0.071278 0.714705 0.147977
H5    H     H_    0.559677 0.159548 0.352812 0.187267
H6    H     H_    0.620556 0.071549 0.331285 0.169337
H7    H     H_    0.533510 0.048389 0.317982 0.200819
H8    H     H_    0.648950 0.912768 0.364523 0.186897
H9    H     H_    0.592340 0.819770 0.386887 0.160037
H10   H     H_    0.569209 0.911900 0.320904 0.158891
H11   H     H_    0.338294 0.050892 0.544583 0.098826
H12   H     H_    0.685233 0.681064 0.418306 0.187341
H13   H     H_    0.362428 0.162736 0.511025 0.149125
H14   H     H_    0.315910 0.083847 0.447128 0.198383
H15   H     H_    0.334893 0.906295 0.520747 0.099013
H16   H     H_    0.323746 0.917443 0.414560 0.204606
H17   H     H_    0.368141 0.820378 0.455846 0.162084
H18   H     H_    0.457430 0.180692 0.662177 0.168620
H19   H     H_    0.391364 0.102780 0.644230 0.130745
H20   H     H_    0.449310 0.079968 0.724329 0.168602
H21   H     H_    0.405956 0.842611 0.622756 0.140630
H22   H     H_    0.418271 0.915559 0.710104 0.161152
H23   H     H_    0.740183 0.645481 0.332995 0.179485
H24   H     H_    0.375684 0.958247 0.627957 0.128057
H25   H     H_    0.259777 0.649907 0.663707 0.203953
H26   H     H_    0.335053 0.586210 0.643908 0.158627
H27   H     H_    0.314741 0.683370 0.577697 0.147768
H28   H     H_    0.259901 0.350232 0.336095 0.189864
H29   H     H_    0.335181 0.413858 0.355961 0.128704
H30   H     H_    0.314823 0.316579 0.422010 0.181375
H31   H     H_    0.344985 0.525048 0.029289 0.209904
H32   H     H_    0.367205 0.543809 0.139108 0.126072
H33   H     H_    0.341126 0.631518 0.069779 0.178532
H34   H     H_    0.664657 0.418851 0.646208 0.150517
H35   H     H_    0.410200 0.365011 0.165391 0.138989
H36   H     H_    0.353586 0.402569 0.085798 0.156047
H37   H     H_    0.388304 0.297711 0.075863 0.193065
H38   H     H_    0.493345 0.252477 0.069772 0.178755
H39   H     H_    0.561258 0.310072 0.029178 0.206176
H40   H     H_    0.537874 0.326162 0.139041 0.134698
H41   H     H_    0.423267 0.729012 0.075819 0.192336
H42   H     H_    0.456630 0.670395 0.165273 0.148047
H43   H     H_    0.509411 0.716387 0.085466 0.158318
H44   H     H_    0.595199 0.630165 0.138975 0.123045
H45   H     H_    0.684681 0.319570 0.582661 0.193401
H46   H     H_    0.665834 0.616070 0.069692 0.173321
H47   H     H_    0.594105 0.664871 0.029113 0.208424
H48   H     H_    0.637294 0.381241 0.085573 0.158705
H49   H     H_    0.688711 0.473351 0.075547 0.187954
H50   H     H_    0.633670 0.464813 0.165181 0.125149
H51   H     H_    0.739732 0.355326 0.667733 0.205902
H52   H     H_    0.593901 0.912340 0.666630 0.192654
H53   H     H_    0.525843 0.911178 0.731396 0.147784
H54   H     H_    0.535947 0.819189 0.659196 0.181159
N1    N     N_R   0.965659 0.501154 0.573639 -0.129520
N2    N     N_R   0.965696 0.498304 0.426722 -0.138997
N3    N     N_R   0.034311 0.500589 0.573626 -0.129622
N4    N     N_R   0.034347 0.498835 0.426695 -0.138104
N5    N     N_1   0.498600 0.724970 0.501390 -0.189022
N6    N     N_1   0.498600 0.275030 0.501390 -0.177044
O1    O     O_R   0.500080 0.575970 0.379360 -0.490107
O2    O     O_R   0.500080 0.424030 0.379360 -0.483353
O3    O     O_R   0.599930 0.575960 0.499920 -0.486750
O4    O     O_R   0.599930 0.424040 0.499920 -0.493020
O5    O     O_R   0.500070 0.575900 0.620490 -0.484511
O6    O     O_R   0.500070 0.424100 0.620490 -0.489469
O7    O     O_R   0.400220 0.575910 0.499940 -0.503089
O8    O     O_R   0.400220 0.424090 0.499940 -0.495346

loop_
_geom_bond_atom_site_label_1
_geom_bond_atom_site_label_2
_ccdc_geom_bond_type
C4    C7    S    
C51   H40   S    
N2    N4    A    
C21   C22   S    
C34   C55   A    
C54   H50   S    
C44   H18   S    
C38   H54   S    
Cu1   O7    S    
C31   C32   A    
Cu2   O4    S    
C8    O3    A    
C19   C25   S    
C43   H15   S    
C44   H19   S    
C40   H5    S    
C46   H24   S    
C42   H14   S    
C1    O1    A    
C26   O5    A    
C15   C19   S    
C50   H37   S    
C19   C22   S    
Br3   C4    S    
C20   C21   S    
Cu1   Cu2   S    
C24   N5    T    
C7    C11   S    
Br9   C18   S    
C52   C58   S    
Cu1   O1    S    
C37   H34   S    
C52   H43   S    
C16   C46   S    
C37   H45   S    
C9    C10   S    
C17   C19   S    
C49   H31   S    
C53   H46   S    
C18   C41   S    
C48   H30   S    
C12   N2    A    
C8    C33   S    
Cu2   O8    S    
C47   H25   S    
C28   C30   A    
C53   H47   S    
C54   H49   S    
C38   H53   S    
C30   C32   A    
C15   C39   S    
C40   H6    S    
C4    C58   S    
Br6   C4    S    
C35   N4    A    
C45   C47   S    
C52   H41   S    
C16   C20   S    
C37   H51   S    
C6    C10   S    
C43   H16   S    
C54   H48   S    
C10   C54   S    
C2    C3    S    
C42   H13   S    
C1    O2    A    
Cu1   O5    S    
Br2   C34   S    
Cu2   O6    S    
C3    C7    S    
C47   H27   S    
C48   C55   S    
Cu2   O2    S    
C49   H32   S    
C18   C20   S    
C39   H3    S    
C51   H38   S    
C27   O7    A    
C15   C16   S    
C22   C42   S    
C41   H9    S    
C35   N3    A    
C50   H36   S    
C17   C18   S    
C2    C6    S    
C15   C44   S    
C41   H8    S    
C29   C31   A    
C23   C45   A    
C12   N1    A    
C52   H42   S    
C28   C36   S    
Br4   C3    S    
C46   H22   S    
Cu1   N5    S    
Br1   C9    S    
C50   H35   S    
C23   C57   A    
C39   H2    S    
C34   C57   A    
C49   H33   S    
C48   H29   S    
C16   C38   S    
C36   H23   S    
C38   H52   S    
C43   H17   S    
C20   C24   S    
Br8   C17   S    
C51   H39   S    
C10   C53   S    
C6    C13   S    
C8    O4    A    
C42   H11   S    
C21   C43   S    
C7    C9    S    
C39   H4    S    
C44   H20   S    
C27   O8    A    
Br12  C30   S    
C36   H1    S    
Br14  C23   S    
Br13  C31   S    
C29   C37   S    
C1    C14   S    
Cu1   O3    S    
Br7   C9    S    
Cu2   N6    S    
Br11  C21   S    
C26   O6    A    
C28   C33   A    
C17   C40   S    
C55   C56   A    
C5    C11   T    
C53   H44   S    
C5    C26   S    
C36   H12   S    
C45   C56   A    
C47   H26   S    
C46   H21   S    
Br5   C3    S    
C49   C58   S    
C35   C57   S    
C13   C14   T    
C6    C58   S    
Br10  C22   S    
C2    C51   S    
C2    C50   S    
C48   H28   S    
C41   H10   S    
C12   C32   S    
C29   C33   A    
C40   H7    S    
C27   C56   S    
N1    N3    A    
C25   N6    T    
