data_mof_unit_pretest_1628.cif
_audit_creation_date              2013-03-05T17:01:30-0500
_audit_creation_method            fapswitch 2.2
_symmetry_space_group_name_H-M    P1
_symmetry_Int_Tables_number       1
_space_group_crystal_system       triclinic
_cell_length_a                    13.620398
_cell_length_b                    16.237161
_cell_length_c                    16.727502
_cell_angle_alpha                 89.119138
_cell_angle_beta                  88.823982
_cell_angle_gamma                 93.827262
_cell_volume                      3689.84972984

loop_
_atom_site_label
_atom_site_type_symbol
_atom_site_description
_atom_site_fract_x
_atom_site_fract_y
_atom_site_fract_z
_atom_type_partial_charge
O1    O     O_R   0.495820 0.577170 0.387320 -0.587469
O2    O     O_R   0.504180 0.422830 0.612680 -0.586980
O3    O     O_R   0.503320 0.438390 0.381110 -0.597596
O4    O     O_R   0.496680 0.561610 0.618890 -0.597559
C1    C     C_R   0.501552 0.510066 0.346733 0.902803
C2    C     C_R   0.498440 0.489933 0.653266 0.903130
O5    O     O_R   0.636060 0.579370 0.503570 -0.568480
O6    O     O_R   0.363940 0.420630 0.496430 -0.568365
O7    O     O_R   0.643560 0.440600 0.497360 -0.625641
O8    O     O_R   0.356440 0.559400 0.502640 -0.625597
C3    C     C_R   0.684814 0.514395 0.500350 0.895812
C4    C     C_R   0.315185 0.485605 0.499649 0.896136
Zn1   Zn    Zn3+2 0.495000 0.592660 0.504150 1.038614
Zn2   Zn    Zn3+2 0.505000 0.407340 0.495850 1.038583
C5    C     C_1   0.212214 0.474947 0.499768 -0.087339
C6    C     C_1   0.787786 0.525053 0.500233 -0.086796
C7    C     C_2   0.021313 0.464515 0.499897 -0.143571
C8    C     C_2   0.978686 0.535485 0.500105 -0.143563
C9    C     C_1   0.875042 0.532574 0.500149 0.077010
C10   C     C_1   0.124958 0.467426 0.499852 0.076839
H1    H     H_    0.020840 0.594776 0.500294 0.204820
H2    H     H_    0.979160 0.405225 0.499708 0.204823
C11   C     C_R   0.513632 0.514411 0.259964 -0.075884
C12   C     C_R   0.486309 0.485583 0.740032 -0.075857
C13   C     C_R   0.530609 0.442050 0.218443 -0.216369
C14   C     C_R   0.469371 0.557952 0.781551 -0.216314
C15   C     C_R   0.548218 0.444274 0.136289 -0.060116
C16   C     C_R   0.451691 0.555725 0.863695 -0.060099
C17   C     C_R   0.541691 0.520074 0.094807 0.264044
C18   C     C_R   0.458133 0.479913 0.905178 0.264114
C19   C     C_R   0.528167 0.592662 0.136210 -0.129910
C20   C     C_R   0.471608 0.407318 0.863774 -0.129969
C21   C     C_R   0.514395 0.590069 0.218674 -0.155209
C22   C     C_R   0.485429 0.409912 0.781314 -0.155441
N1    N     N_2   0.535319 0.522792 0.011402 -0.138414
N2    N     N_2   0.464500 0.477191 0.988585 -0.138430
H3    H     H_    0.468683 0.616447 0.749853 0.251168
H4    H     H_    0.531380 0.383563 0.250147 0.251166
H5    H     H_    0.523745 0.650597 0.103930 0.183797
H6    H     H_    0.475957 0.349374 0.896052 0.183719
H7    H     H_    0.502454 0.646702 0.249700 0.201764
H8    H     H_    0.497312 0.353271 0.750284 0.201455
N3    N     N_R   0.511670 0.283920 0.490320 -0.192624
N4    N     N_R   0.488330 0.716080 0.509680 -0.192916
C23   C     C_R   0.437462 0.231902 0.523468 0.396673
C24   C     C_R   0.562477 0.768004 0.476367 0.397392
C25   C     C_R   0.442250 0.145388 0.521518 -0.320119
C26   C     C_R   0.557806 0.854527 0.478258 -0.320158
C27   C     C_R   0.523640 0.109942 0.486089 0.181923
C28   C     C_R   0.476528 0.890048 0.513801 0.181987
C29   C     C_R   0.598245 0.163303 0.451222 0.162139
C30   C     C_R   0.401928 0.836754 0.548786 0.162168
C31   C     C_R   0.591158 0.250152 0.453705 -0.116037
C32   C     C_R   0.408927 0.749899 0.546343 -0.116035
N5    N     N_2   0.532628 0.022206 0.481503 -0.085644
N6    N     N_2   0.467600 0.977788 0.518363 -0.085780
H9    H     H_    0.617730 0.893347 0.451412 0.238139
H10   H     H_    0.382307 0.106498 0.548242 0.238605
C33   C     C_2   0.426562 0.632698 0.904408 0.947089
O9    O     O_2   0.383165 0.629188 0.969240 -0.598710
O10   O     O_R   0.450203 0.709539 0.867448 -0.769006
H11   H     H_    0.428622 0.757136 0.900599 0.369257
C34   C     C_2   0.573368 0.367310 0.095569 0.947090
O11   O     O_2   0.616713 0.370832 0.030714 -0.598675
O12   O     O_R   0.549806 0.290465 0.132546 -0.769044
H12   H     H_    0.571392 0.242876 0.099386 0.369245
N7    N     N_R   0.646353 0.735527 0.438855 0.233111
O13   O     O_R   0.733923 0.758247 0.463395 -0.345009
O14   O     O_R   0.637449 0.700424 0.369833 -0.376959
N8    N     N_R   0.353339 0.264218 0.560799 0.232833
O15   O     O_R   0.362258 0.300696 0.629111 -0.376305
O16   O     O_R   0.265829 0.240079 0.537161 -0.344833
N9    N     N_R   0.681037 0.129139 0.412054 0.234617
O17   O     O_R   0.707200 0.152347 0.339467 -0.324045
O18   O     O_R   0.727857 0.072072 0.447451 -0.310046
N10   N     N_R   0.319228 0.870992 0.588018 0.234617
O19   O     O_R   0.293105 0.847790 0.660613 -0.324043
O20   O     O_R   0.272416 0.928081 0.552647 -0.310032
C35   C     C_2   0.673884 0.303021 0.419239 1.087018
O21   O     O_2   0.754980 0.302362 0.449244 -0.600893
O22   O     O_R   0.661064 0.350559 0.350608 -0.785386
H13   H     H_    0.723575 0.383610 0.332518 0.339367
C36   C     C_2   0.326176 0.697066 0.580823 1.086990
O23   O     O_2   0.245066 0.697790 0.550851 -0.600811
O24   O     O_R   0.338994 0.649476 0.649418 -0.785368
H14   H     H_    0.276467 0.616454 0.667517 0.339389

loop_
_geom_bond_atom_site_label_1
_geom_bond_atom_site_label_2
_geom_bond_distance
_ccdc_geom_bond_type
N5    N6    1.250369 D    
C34   O12   1.398976 S    
C15   C17   1.412480 A    
C8    H1    1.087584 S    
N9    O17   1.301340 A    
N1    N2    1.246105 D    
C22   H8    1.082854 S    
C27   C29   1.402158 A    
O22   H13   1.013867 S    
C26   H9    1.082906 S    
C25   C27   1.407148 A    
O24   H14   1.013865 S    
O5    C3    1.284801 A    
O1    C1    1.298511 A    
C31   C35   1.472375 S    
N10   O20   1.301303 A    
C7    C10   1.409301 S    
C8    C9    1.409300 S    
O4    Zn1   1.977892 S    
N3    C31   1.382120 A    
N4    C24   1.374795 A    
C11   C21   1.399364 A    
C28   C30   1.402276 A    
C19   C21   1.387909 A    
N8    O15   1.299312 A    
C26   C28   1.407282 A    
C33   O9    1.223108 D    
N9    O18   1.301306 A    
O2    C2    1.298508 A    
C32   C36   1.472395 S    
C30   C32   1.420990 A    
C23   C25   1.411447 A    
C5    C10   1.186553 T    
C24   C26   1.411374 A    
C33   O10   1.398966 S    
N7    O13   1.301254 A    
N10   O19   1.301331 A    
O4    C2    1.292068 A    
C35   O22   1.393993 S    
O3    C1    1.292069 A    
C27   N5    1.441025 S    
C28   N6    1.440946 S    
C34   O11   1.223112 D    
N7    O14   1.299748 A    
C20   C22   1.387925 A    
O7    Zn2   1.928805 S    
C13   H4    1.081341 S    
N3    C23   1.375160 A    
C3    C6    1.401595 S    
C36   O23   1.223213 D    
C1    C11   1.457469 S    
C4    C5    1.401596 S    
O6    C4    1.284806 A    
C2    C12   1.457467 S    
C7    C8    1.324527 D    
O7    C3    1.291158 A    
O3    Zn2   1.977893 S    
O8    C4    1.291156 A    
C36   O24   1.393973 S    
O1    Zn1   1.974125 S    
C20   H6    1.083219 S    
C16   C33   1.488864 S    
O6    Zn2   1.947480 S    
C23   N8    1.427969 S    
C29   N9    1.439776 S    
C12   C14   1.403934 A    
C30   N10   1.439775 S    
O8    Zn1   1.928805 S    
C14   H3    1.081336 S    
C13   C15   1.389647 A    
C17   N1    1.399833 S    
C14   C16   1.389635 A    
C7    H2    1.087585 S    
C18   N2    1.399858 S    
C21   H7    1.082850 S    
C16   C18   1.412487 A    
C24   N7    1.427627 S    
C17   C19   1.396986 A    
C25   H10   1.082904 S    
C18   C20   1.396985 A    
C6    C9    1.186553 T    
C19   H5    1.083221 S    
C11   C13   1.403952 A    
O10   H11   1.013904 S    
O2    Zn2   1.974123 S    
C12   C22   1.399373 A    
C35   O21   1.223222 D    
N4    C32   1.381921 A    
O5    Zn1   1.947480 S    
O12   H12   1.013909 S    
C15   C34   1.488872 S    
N8    O16   1.300915 A    
C29   C31   1.421085 A    
Zn1   N4    2.015551 S    
Zn2   N3    2.015551 S    
