data_mof_unit_pretest_1054.cif
_audit_creation_date              2013-03-05T15:43:30-0500
_audit_creation_method            fapswitch 2.2
_symmetry_space_group_name_H-M    P1
_symmetry_Int_Tables_number       1
_space_group_crystal_system       triclinic
_cell_length_a                    14.531712
_cell_length_b                    16.0872
_cell_length_c                    6.913667
_cell_angle_alpha                 90.00044
_cell_angle_beta                  80.983872
_cell_angle_gamma                 90.000018
_cell_volume                      1596.26961949

loop_
_atom_site_label
_atom_site_type_symbol
_atom_site_description
_atom_site_fract_x
_atom_site_fract_y
_atom_site_fract_z
_atom_type_partial_charge
O1    O     O_R   0.337460 0.413110 0.524760 -0.563132
O2    O     O_R   0.662540 0.913110 0.475240 -0.563124
O3    O     O_R   0.348690 0.587910 0.191230 -0.517824
O4    O     O_R   0.651310 0.087910 0.808770 -0.517823
O5    O     O_R   0.166530 0.586890 0.082470 -0.555681
O6    O     O_R   0.833470 0.086890 0.917530 -0.555666
C1    C     C_R   0.370757 0.616523 0.354401 0.874552
C2    C     C_R   0.629238 0.116520 0.645601 0.874542
O7    O     O_R   0.348700 0.413830 0.191250 -0.569125
O8    O     O_R   0.651300 0.913830 0.808750 -0.569120
O9    O     O_R   0.166530 0.411570 0.082490 -0.563426
O10   O     O_R   0.833470 0.911570 0.917510 -0.563420
C3    C     C_R   0.370588 0.385607 0.353284 0.828887
C4    C     C_R   0.629411 0.885608 0.646716 0.828895
O11   O     O_R   0.337460 0.588430 0.524740 -0.522422
O12   O     O_R   0.662540 0.088430 0.475260 -0.522435
O13   O     O_3   0.192230 0.499460 0.407330 -0.284445
O14   O     O_3   0.807770 0.999460 0.592670 -0.284429
V1    V     V_3+5 0.263080 0.500100 0.108540 1.229241
V2    V     V_3+5 0.736920 0.000100 0.891460 1.229272
O15   O     O_R   0.155290 0.412090 0.756570 -0.579603
O16   O     O_R   0.844710 0.912090 0.243430 -0.579610
C5    C     C_R   0.131954 0.383430 0.933328 0.854862
C6    C     C_R   0.868047 0.883431 0.066670 0.854873
O17   O     O_R   0.155290 0.586170 0.756550 -0.564219
O18   O     O_R   0.844710 0.086170 0.243450 -0.564248
C7    C     C_R   0.131880 0.614681 0.933282 0.891915
C8    C     C_R   0.868121 0.114680 0.066719 0.891841
V3    V     V_3+5 0.240910 0.499900 0.616030 1.200310
V4    V     V_3+5 0.759090 0.999900 0.383970 1.200312
O19   O     O_3   0.311760 0.500540 0.867100 -0.234182
O20   O     O_3   0.688240 0.000540 0.132900 -0.234150
C9    C     C_3   0.110526 0.766872 0.014342 -0.215596
C10   C     C_3   0.889468 0.266876 0.985735 -0.215611
H1    H     H_    0.146949 0.757153 0.142758 0.123017
H2    H     H_    0.853020 0.257168 0.857350 0.123019
H3    H     H_    0.165641 0.782563 0.888922 0.137313
H4    H     H_    0.834372 0.282561 0.111197 0.137232
C11   C     C_3   0.040304 0.840869 0.052555 0.000267
C12   C     C_3   0.959691 0.340871 0.947499 0.000299
H5    H     H_    0.061777 0.887979 0.936235 0.178454
H6    H     H_    0.938233 0.387979 0.063832 0.178471
H7    H     H_    0.019722 0.670018 0.281870 0.023348
H8    H     H_    0.980241 0.170042 0.718111 0.023336
H9    H     H_    0.905688 0.762452 0.330992 0.066420
H10   H     H_    0.094278 0.262474 0.668972 0.066428
C13   C     C_3   0.983968 0.667133 0.150436 0.285397
C14   C     C_3   0.016014 0.167142 0.849518 0.285403
C15   C     C_3   0.014084 0.703157 0.784668 -0.196888
C16   C     C_3   0.985945 0.203135 0.215308 -0.196870
C17   C     C_3   0.060660 0.685258 0.968814 -0.147569
C18   C     C_3   0.939342 0.185255 0.031187 -0.147553
H11   H     H_    0.977608 0.647484 0.740163 0.167827
H12   H     H_    0.022429 0.147457 0.259754 0.167835
H13   H     H_    0.068740 0.718540 0.658099 0.096698
H14   H     H_    0.931304 0.218506 0.341916 0.096673
C19   C     C_3   0.938396 0.811690 0.033404 -0.079877
C20   C     C_3   0.061605 0.311688 0.966591 -0.079894
C21   C     C_3   0.908555 0.738294 0.179513 0.002465
C22   C     C_3   0.091429 0.238302 0.820436 0.002457
C23   C     C_3   0.945156 0.777026 0.820314 -0.213848
C24   C     C_3   0.054869 0.277008 0.179664 -0.213839
H15   H     H_    0.969442 0.827160 0.713504 0.113334
H16   H     H_    0.030591 0.327132 0.286508 0.113305
H17   H     H_    0.875839 0.757834 0.787399 0.107555
H18   H     H_    0.124193 0.257812 0.212535 0.107554
H19   H     H_    0.565144 0.806593 0.353251 0.100461
H20   H     H_    0.434894 0.306627 0.646750 0.100459
C25   C     C_2   0.439434 0.684623 0.348984 -0.264475
C26   C     C_2   0.560562 0.184621 0.651021 -0.264465
C27   C     C_2   0.466573 0.716437 0.513259 0.334595
C28   C     C_2   0.533410 0.216424 0.486749 0.334583
H21   H     H_    0.531338 0.797131 0.804642 0.128659
H22   H     H_    0.468621 0.297093 0.195364 0.128649
C29   C     C_2   0.560804 0.818673 0.659247 -0.168676
C30   C     C_2   0.439185 0.318662 0.340755 -0.168691
C31   C     C_2   0.535256 0.784427 0.498099 -0.142571
C32   C     C_2   0.464752 0.284435 0.501905 -0.142567
H23   H     H_    0.468628 0.709734 0.206558 0.094277
H24   H     H_    0.531392 0.209750 0.793445 0.094255
N1    N     N_R   0.944422 0.583003 0.147814 0.064154
O21   O     O_R   0.949461 0.532788 0.293361 -0.378742
O22   O     O_R   0.908286 0.555949 0.999122 -0.412494
N2    N     N_R   0.055559 0.083010 0.852072 0.064163
O23   O     O_R   0.050477 0.032802 0.706530 -0.378720
O24   O     O_R   0.091726 0.055944 0.000712 -0.412510
N3    N     N_3   0.813501 0.709809 0.167275 -0.495720
H25   H     H_    0.792338 0.667888 0.281236 0.222807
H26   H     H_    0.810680 0.679213 0.035422 0.233558
N4    N     N_3   0.186488 0.209812 0.832607 -0.495712
H27   H     H_    0.207636 0.167897 0.718622 0.222810
H28   H     H_    0.189326 0.179209 0.964442 0.233557
N5    N     N_R   0.430444 0.685128 0.704845 0.100006
O25   O     O_R   0.356344 0.718501 0.804852 -0.389379
O26   O     O_R   0.479180 0.632369 0.789247 -0.359721
N6    N     N_R   0.569492 0.185079 0.295175 0.099987
O27   O     O_R   0.643517 0.218492 0.194968 -0.389381
O28   O     O_R   0.520771 0.132231 0.210979 -0.359639
N7    N     N_3   0.048713 0.880608 0.240240 -0.446724
H29   H     H_    0.024676 0.841553 0.357690 0.166998
H30   H     H_    0.011001 0.936083 0.255619 0.238969
N8    N     N_3   0.951262 0.380613 0.759829 -0.446698
H31   H     H_    0.975245 0.341546 0.642366 0.166980
H32   H     H_    0.989007 0.436071 0.744397 0.238974

loop_
_geom_bond_atom_site_label_1
_geom_bond_atom_site_label_2
_geom_bond_distance
_ccdc_geom_bond_type
C20   C24   1.563879 S    
C5    C20   1.535025 S    
N3    H25   1.046046 S    
N5    O25   1.300934 A    
O11   V3    2.029203 S    
O13   V3    1.703612 S    
H19   C31   1.087351 S    
O4    C2    1.304116 A    
V1    O19   1.707840 S    
N1    O21   1.301386 A    
C11   H5    1.113469 S    
O9    V1    2.026939 S    
C9    C11   1.563221 S    
H22   C30   1.085820 S    
C10   C12   1.563223 S    
N2    O24   1.300444 A    
O3    C1    1.304115 A    
C19   C21   1.570135 S    
O12   V4    2.029199 S    
C11   C19   1.578728 S    
C2    C26   1.478480 S    
C23   H15   1.112939 S    
C25   C27   1.359318 D    
O7    C3    1.293815 A    
C24   H16   1.112948 S    
O13   V1    2.158886 S    
O5    C7    1.296174 A    
C11   N7    1.468689 S    
O7    V1    2.006027 S    
O6    C8    1.296172 A    
O8    V2    2.006022 S    
C6    C19   1.535014 S    
C15   C17   1.559467 S    
N6    O28   1.300804 A    
C16   C18   1.559468 S    
O3    V1    2.023093 S    
O14   V4    1.703612 S    
C10   H2    1.113609 S    
C12   H6    1.113470 S    
C2    O12   1.283235 A    
H20   C32   1.087356 S    
H21   C29   1.085813 S    
N1    O22   1.300440 A    
C7    C17   1.529991 S    
C14   C22   1.575710 S    
C20   C22   1.570144 S    
C21   N3    1.470299 S    
O17   V3    2.009754 S    
C13   C21   1.575706 S    
C15   C23   1.548820 S    
C24   H18   1.110679 S    
C26   H24   1.087131 S    
C12   C20   1.578732 S    
N2    O23   1.301391 A    
O8    C4    1.293810 A    
C13   C17   1.570082 S    
C1    O11   1.283234 A    
C15   H13   1.113534 S    
O15   V3    2.027003 S    
C9    H3    1.113282 S    
C14   N2    1.471591 S    
C28   N6    1.437282 S    
N4    H28   1.042416 S    
N7    H29   1.042696 S    
C3    C30   1.460795 S    
N6    O27   1.300950 A    
O10   V2    2.026941 S    
O1    V3    2.009623 S    
C16   H12   1.108549 S    
N8    H32   1.043953 S    
C29   C31   1.346198 D    
O5    V1    2.007401 S    
N7    H30   1.043954 S    
O18   V4    2.009762 S    
O15   C5    1.300420 A    
C16   C24   1.548822 S    
O16   C6    1.300417 A    
C25   H23   1.087125 S    
C9    C17   1.555478 S    
C27   C31   1.473333 S    
V2    O20   1.707840 S    
H9    C21   1.111703 S    
O16   V4    2.026994 S    
H10   C22   1.111713 S    
C10   H4    1.113293 S    
C10   C18   1.555475 S    
C30   C32   1.346206 D    
C1    C25   1.478479 S    
C19   C23   1.563863 S    
C27   N5    1.437300 S    
C22   N4    1.470298 S    
O17   C7    1.299524 A    
O6    V2    2.007399 S    
O10   C6    1.297405 A    
O18   C8    1.299523 A    
O2    V4    2.009629 S    
C4    C29   1.460787 S    
N3    H26   1.042413 S    
V3    O19   2.152511 S    
V4    O20   2.152514 S    
C8    C18   1.529988 S    
N4    H27   1.046052 S    
C15   H11   1.108547 S    
O9    C5    1.297410 A    
C9    H1    1.113603 S    
O14   V2    2.158884 S    
C13   N1    1.471587 S    
N8    H31   1.042713 S    
O2    C4    1.286122 A    
C16   H14   1.113540 S    
C12   N8    1.468695 S    
O4    V2    2.023099 S    
C23   H17   1.110677 S    
C14   C18   1.570096 S    
O1    C3    1.286120 A    
N5    O26   1.300761 A    
C28   C32   1.473332 S    
C26   C28   1.359325 D    
H7    C13   1.116150 S    
H8    C14   1.116152 S    
