data_mof_unit_pretest_101.cif
_audit_creation_date              2012-12-10T16:57:09-0500
_audit_creation_method            fapswitch 2.2
_symmetry_space_group_name_H-M    P1
_symmetry_Int_Tables_number       1
_space_group_crystal_system       triclinic
_cell_length_a                    7.74277
_cell_length_b                    8.621054
_cell_length_c                    16.963495
_cell_angle_alpha                 91.867241
_cell_angle_beta                  82.678537
_cell_angle_gamma                 93.073661
_cell_volume                      1121.10061705

loop_
_atom_site_label
_atom_site_type_symbol
_atom_type_description
_atom_site_fract_x
_atom_site_fract_y
_atom_site_fract_z
_atom_type_partial_charge
C1    C     C_R   0.544993 0.794329 0.499437 0.826813
C2    C     C_R   0.360967 0.514650 0.227549 0.333397
C3    C     C_R   0.660053 0.579273 0.848822 0.572731
C4    C     C_R   0.359954 0.498729 0.145557 0.569522
C5    C     C_R   0.510651 0.625150 0.896640 -0.441743
C6    C     C_R   0.511068 0.459466 0.097039 -0.430836
C7    C     C_R   0.355052 0.641368 0.865183 0.576901
C8    C     C_R   0.661317 0.425077 0.128908 0.572190
C9    C     C_R   0.345264 0.602701 0.785858 0.513369
C10   C     C_R   0.663637 0.436187 0.210388 0.510644
C11   C     C_2   0.506387 0.614762 0.982137 0.619153
C12   C     C_R   0.455003 0.205670 0.500576 0.831536
C13   C     C_2   0.517151 0.472945 0.011759 0.604874
C14   C     C_2   0.564036 0.957219 0.510117 0.225104
C15   C     C_2   0.435943 0.042773 0.489916 0.225873
C16   C     C_R   0.482644 0.508213 0.653721 0.990227
C17   C     C_R   0.518137 0.495799 0.346204 0.993446
C18   C     C_R   0.490605 0.543242 0.738216 -0.431324
C19   C     C_R   0.515287 0.483841 0.260254 -0.431527
C20   C     C_R   0.650266 0.531579 0.770111 0.340238
F1    F     F_    0.811527 0.401706 0.239978 -0.553807
F2    F     F_    0.192656 0.620768 0.756534 -0.556707
F3    F     F_    0.210001 0.684814 0.912651 -0.505556
F4    F     F_    0.807618 0.387087 0.080706 -0.509309
F5    F     F_    0.214619 0.527616 0.112111 -0.545281
F6    F     F_    0.810112 0.567131 0.881629 -0.539129
F7    F     F_    0.041471 0.359462 0.427925 -0.517678
F8    F     F_    0.958630 0.640965 0.571859 -0.517895
H1    H     H_    0.890107 0.462967 0.756366 0.428831
H2    H     H_    0.120645 0.582228 0.244034 0.422875
H3    H     H_    0.535516 0.250290 0.995395 0.374282
H4    H     H_    0.484753 0.836649 0.997777 0.373919
H5    H     H_    0.771569 0.939292 0.564078 0.384705
H6    H     H_    0.228317 0.060672 0.436011 0.385282
N1    N     N_2   0.953500 0.457650 0.478520 0.284965
N2    N     N_2   0.046500 0.542350 0.521480 0.285426
O1    O     O_R   0.388470 0.738640 0.505270 -0.558431
O2    O     O_3   0.215365 0.563407 0.276111 -0.629593
O3    O     O_3   0.533375 0.342428 0.962055 -0.729283
O4    O     O_3   0.488987 0.745425 0.031519 -0.713790
O5    O     O_3   0.700281 0.022403 0.548275 -0.722576
O6    O     O_3   0.299680 0.977578 0.451771 -0.720447
O7    O     O_R   0.611530 0.261360 0.494730 -0.558542
O8    O     O_R   0.679650 0.711510 0.491500 -0.614536
O9    O     O_R   0.320350 0.288490 0.508500 -0.613867
O10   O     O_R   0.337210 0.515200 0.623500 -0.561613
O11   O     O_R   0.662790 0.484800 0.376500 -0.561276
O12   O     O_R   0.628380 0.488060 0.609730 -0.537460
O13   O     O_R   0.371620 0.511940 0.390270 -0.535260
O14   O     O_3   0.792210 0.468956 0.724508 -0.628128
Zn1   Zn    Zn3+2 0.305580 0.518120 0.509190 1.210054
Zn2   Zn    Zn3+2 0.694420 0.481880 0.490810 1.209239

loop_
_geom_bond_atom_site_label_1
_geom_bond_atom_site_label_2
_ccdc_geom_bond_type
C2    C4    A    
O11   Zn2   S    
C20   O14   S    
F7    N1    S    
C2    O2    S    
C1    O8    A    
N1    N2    D    
H6    O6    S    
C12   C15   S    
C1    O1    A    
C10   C19   A    
C3    C5    A    
H5    O5    S    
O8    Zn2   S    
C4    F5    S    
C3    C20   A    
C6    C13   S    
C11   C13   D    
C16   O12   A    
N2    Zn1   S    
C14   O5    S    
C7    F3    S    
C8    C10   A    
C8    F4    S    
H3    O3    S    
C5    C11   S    
C12   O7    A    
C18   C20   A    
H1    O14   S    
H4    O4    S    
C10   F1    S    
C11   O4    S    
O1    Zn1   S    
O7    Zn2   S    
C13   O3    S    
C4    C6    A    
O9    Zn1   S    
C17   O13   A    
C7    C9    A    
C9    C18   A    
O12   Zn2   S    
F8    N2    S    
C16   C18   S    
C9    F2    S    
C16   O10   A    
N1    Zn2   S    
C5    C7    A    
C14   C15   D    
C6    C8    A    
C1    C14   S    
H2    O2    S    
C17   C19   S    
C2    C19   A    
O10   Zn1   S    
C3    F6    S    
C17   O11   A    
C15   O6    S    
C12   O9    A    
O13   Zn1   S    
