data_mof_unit_pretest_1900.cif
_audit_creation_date              2012-12-10T18:55:26-0500
_audit_creation_method            fapswitch 2.2
_symmetry_space_group_name_H-M    P1
_symmetry_Int_Tables_number       1
_space_group_crystal_system       monoclinic
_cell_length_a                    19.468272
_cell_length_b                    18.156198
_cell_length_c                    17.71641
_cell_angle_alpha                 90.0
_cell_angle_beta                  90.005672
_cell_angle_gamma                 90.0
_cell_volume                      6262.2158891

loop_
_atom_site_label
_atom_site_type_symbol
_atom_type_description
_atom_site_fract_x
_atom_site_fract_y
_atom_site_fract_z
_atom_type_partial_charge
C1    C     C_R   0.367785 0.500000 0.499988 0.883620
C2    C     C_R   0.632215 0.500000 0.500012 0.883620
C3    C     C_R   0.852131 0.499992 0.500009 0.048700
C4    C     C_R   0.147869 0.499992 0.499991 0.048700
C5    C     C_R   0.707649 0.500000 0.500013 -0.191187
C6    C     C_R   0.292351 0.500000 0.499986 -0.191186
C7    C     C_R   0.964252 0.500114 0.568419 -0.157014
C8    C     C_R   0.035748 0.500115 0.431581 -0.157014
C9    C     C_R   0.035767 0.499859 0.568414 -0.157017
C10   C     C_R   0.964233 0.499859 0.431586 -0.157017
C11   C     C_R   0.072128 0.499988 0.499996 0.113807
C12   C     C_R   0.927872 0.499988 0.500004 0.113807
C13   C     C_R   0.447013 0.721073 0.467328 0.096944
C14   C     C_R   0.447013 0.278927 0.532660 0.096944
C15   C     C_R   0.552987 0.721073 0.532672 0.096944
C16   C     C_R   0.552987 0.278927 0.467339 0.096944
C17   C     C_R   0.445702 0.798373 0.467379 -0.202646
C18   C     C_R   0.445702 0.201627 0.532609 -0.202646
C19   C     C_R   0.554298 0.798373 0.532621 -0.202646
C20   C     C_R   0.554298 0.201627 0.467391 -0.202646
C21   C     C_R   0.500000 0.838188 0.500000 0.176360
C22   C     C_R   0.500000 0.161812 0.500000 0.176361
C23   C     C_R   0.499733 0.960770 0.569112 -0.073247
C24   C     C_R   0.499733 0.039229 0.430888 -0.073247
C25   C     C_R   0.500267 0.960770 0.430888 -0.073247
C26   C     C_R   0.500267 0.039229 0.569112 -0.073247
C27   C     C_R   0.500000 0.078794 0.500000 -0.068418
C28   C     C_R   0.500000 0.921206 0.500000 -0.068418
C29   C     C_R   0.500000 0.500000 0.355374 0.881412
C30   C     C_R   0.500000 0.500000 0.644626 0.881411
C31   C     C_R   0.497064 0.566695 0.846314 -0.147035
C32   C     C_R   0.497064 0.433304 0.153685 -0.147030
C33   C     C_R   0.502936 0.566695 0.153685 -0.147035
C34   C     C_R   0.502936 0.433304 0.846315 -0.147030
C35   C     C_R   0.497080 0.566789 0.767637 -0.152868
C36   C     C_R   0.497079 0.433211 0.232362 -0.152883
C37   C     C_R   0.502920 0.566789 0.232363 -0.152869
C38   C     C_R   0.502921 0.433211 0.767638 -0.152884
C39   C     C_R   0.500000 0.500000 0.727607 -0.011540
C40   C     C_R   0.499999 0.500000 0.272393 -0.011540
C41   C     C_R   0.500000 0.500000 0.885541 0.136985
C42   C     C_R   0.500000 0.500000 0.114459 0.136985
C43   C     C_1   0.500000 0.500000 0.966159 -0.040923
C44   C     C_1   0.500000 0.500000 0.033841 -0.040923
C45   C     C_R   0.744255 0.455872 0.552645 -0.033006
C46   C     C_R   0.255754 0.544125 0.552619 -0.033002
C47   C     C_R   0.255745 0.455872 0.447355 -0.033006
C48   C     C_R   0.744246 0.544125 0.447381 -0.033002
C49   C     C_R   0.816029 0.455339 0.550631 -0.185506
C50   C     C_R   0.183979 0.544651 0.550609 -0.185505
C51   C     C_R   0.183971 0.455339 0.449369 -0.185506
C52   C     C_R   0.816021 0.544651 0.449391 -0.185505
Cu1   Cu    Cu3+1 0.500000 0.573360 0.500000 1.003281
Cu2   Cu    Cu3+1 0.500000 0.426640 0.500000 1.003279
H1    H     H_    0.494759 0.618535 0.876522 0.143545
H2    H     H_    0.494758 0.381465 0.123477 0.143545
H3    H     H_    0.505241 0.618535 0.123478 0.143545
H4    H     H_    0.505242 0.381465 0.876523 0.143545
H5    H     H_    0.494700 0.619044 0.738269 0.163613
H6    H     H_    0.494699 0.380956 0.261730 0.163613
H7    H     H_    0.505300 0.619044 0.261731 0.163613
H8    H     H_    0.505301 0.380956 0.738270 0.163613
H9    H     H_    0.844149 0.420727 0.589742 0.171899
H10   H     H_    0.155865 0.579260 0.589722 0.171894
H11   H     H_    0.155851 0.420727 0.410258 0.171900
H12   H     H_    0.844134 0.579260 0.410278 0.171894
H13   H     H_    0.937404 0.501061 0.621942 0.139846
H14   H     H_    0.062596 0.501061 0.378058 0.139846
H15   H     H_    0.062630 0.498913 0.621934 0.139846
H16   H     H_    0.937370 0.498913 0.378066 0.139846
H17   H     H_    0.405387 0.691132 0.441073 0.128446
H18   H     H_    0.405387 0.308868 0.558906 0.128446
H19   H     H_    0.594613 0.691132 0.558926 0.128446
H20   H     H_    0.594613 0.308868 0.441094 0.128446
H21   H     H_    0.402744 0.826953 0.441885 0.145680
H22   H     H_    0.402744 0.173047 0.558093 0.145680
H23   H     H_    0.597256 0.826953 0.558115 0.145680
H24   H     H_    0.597256 0.173047 0.441907 0.145680
N1    N     N_R   0.500000 0.683620 0.500000 -0.181734
N2    N     N_R   0.500000 0.316380 0.500000 -0.181734
O1    O     O_R   0.400190 0.561980 0.499990 -0.580708
O2    O     O_R   0.599810 0.438020 0.500010 -0.580706
O3    O     O_R   0.599810 0.561980 0.500010 -0.580708
O4    O     O_R   0.400190 0.438020 0.499990 -0.580707
O5    O     O_R   0.500000 0.561980 0.391260 -0.577090
O6    O     O_R   0.500000 0.438020 0.608740 -0.577098
O7    O     O_R   0.500000 0.561980 0.608740 -0.577090
O8    O     O_R   0.500000 0.438020 0.391260 -0.577098
C53   C     C_2   0.710050 0.411690 0.612526 0.847020
O9    O     O_2   0.657771 0.434151 0.643055 -0.612691
O10   O     O_R   0.739430 0.345272 0.636118 -0.750789
H25   H     H_    0.711981 0.320487 0.677596 0.345904
C54   C     C_2   0.289968 0.588311 0.612498 0.847019
O11   O     O_2   0.342250 0.565850 0.643032 -0.612696
O12   O     O_R   0.260592 0.654731 0.636084 -0.750785
H26   H     H_    0.288047 0.679519 0.677561 0.345902
C55   C     C_2   0.289950 0.411690 0.387474 0.847020
O13   O     O_2   0.342229 0.434151 0.356945 -0.612690
O14   O     O_R   0.260570 0.345272 0.363882 -0.750789
H27   H     H_    0.288019 0.320487 0.322404 0.345904
C56   C     C_2   0.710032 0.588311 0.387502 0.847019
O15   O     O_2   0.657750 0.565850 0.356968 -0.612696
O16   O     O_R   0.739408 0.654731 0.363916 -0.750785
H28   H     H_    0.711953 0.679519 0.322439 0.345902
C57   C     C_2   0.499080 0.919546 0.641721 0.883853
O17   O     O_2   0.541360 0.933687 0.690685 -0.565400
O18   O     O_R   0.450450 0.864055 0.653569 -0.742653
H29   H     H_    0.455614 0.839524 0.704660 0.338733
C58   C     C_2   0.499080 0.080454 0.358278 0.883853
O19   O     O_2   0.541361 0.066313 0.309325 -0.565400
O20   O     O_R   0.450451 0.135945 0.346420 -0.742652
H30   H     H_    0.455615 0.160476 0.295330 0.338734
C59   C     C_2   0.500920 0.919546 0.358279 0.883853
O21   O     O_2   0.458640 0.933687 0.309315 -0.565400
O22   O     O_R   0.549550 0.864055 0.346431 -0.742653
H31   H     H_    0.544386 0.839524 0.295340 0.338733
C60   C     C_2   0.500920 0.080454 0.641721 0.883853
O23   O     O_2   0.458639 0.066313 0.690675 -0.565400
O24   O     O_R   0.549549 0.135945 0.653580 -0.742652
H32   H     H_    0.544385 0.160476 0.704670 0.338734

loop_
_geom_bond_atom_site_label_1
_geom_bond_atom_site_label_2
_ccdc_geom_bond_type
C13   N1    A    
C54   O11   D    
C49   H9    S    
C50   H10   S    
C14   C18   A    
O12   H26   S    
C26   C60   S    
Cu2   O4    S    
C55   O13   D    
C3    C49   A    
Cu1   Cu2   S    
C1    O4    A    
C15   C19   A    
C57   O18   S    
C26   C27   A    
C56   O15   D    
C16   H20   S    
C33   C42   A    
C32   C36   A    
Cu1   O1    S    
C19   C21   A    
C9    H15   S    
C37   C40   A    
C60   O24   S    
C6    C46   A    
C38   C39   A    
C1    O1    A    
O22   H31   S    
C23   C57   S    
C35   H5    S    
C51   H11   S    
C23   C26   A    
C19   H23   S    
C29   O8    A    
C3    C12   S    
C15   N1    A    
O20   H30   S    
C33   H3    S    
O18   H29   S    
C24   C27   A    
C14   N2    A    
C30   O6    A    
C45   C53   S    
C29   O5    A    
C56   O16   S    
C18   C22   A    
C41   C43   S    
C2    O3    A    
C34   C41   A    
C42   C44   S    
C55   O14   S    
Cu2   N2    S    
C7    C12   A    
C5    C48   A    
C6    C47   A    
C4    C51   A    
C1    C6    S    
C36   C40   A    
C24   C25   A    
O10   H25   S    
Cu2   O6    S    
C47   C51   A    
C13   H17   S    
C5    C45   A    
C33   C37   A    
C4    C50   A    
C25   C28   A    
C35   C39   A    
C43   C44   T    
C25   C59   S    
O14   H27   S    
C45   C49   A    
C16   C20   A    
Cu1   O7    S    
C23   C28   A    
C4    C11   S    
C9    C11   A    
C10   C12   A    
C10   H16   S    
C15   H19   S    
C21   C28   S    
C20   C22   A    
C8    H14   S    
C22   C27   S    
C31   C35   A    
C2    O2    A    
C2    C5    S    
C53   O10   S    
Cu2   O2    S    
C52   H12   S    
C34   H4    S    
C59   O21   D    
C7    C9    A    
C18   H22   S    
C31   C41   A    
Cu1   N1    S    
C34   C38   A    
C14   H18   S    
C24   C58   S    
C36   H6    S    
C37   H7    S    
C3    C52   A    
C20   H24   S    
C57   O17   D    
C46   C50   A    
C47   C55   S    
C13   C17   A    
Cu1   O3    S    
C31   H1    S    
C58   O20   S    
C53   O9    D    
C58   O19   D    
Cu2   O8    S    
C59   O22   S    
C54   O12   S    
C46   C54   S    
C8    C11   A    
C48   C56   S    
C29   C40   S    
C30   C39   S    
C17   C21   A    
C7    H13   S    
C48   C52   A    
C8    C10   A    
O24   H32   S    
O16   H28   S    
C17   H21   S    
C32   C42   A    
Cu1   O5    S    
C16   N2    A    
C30   O7    A    
C60   O23   D    
C32   H2    S    
C38   H8    S    
