data_mof_unit_pretest_751.cif
_audit_creation_date              2012-10-26T20:58:58-0400
_audit_creation_method            fapswitch 2.2
_symmetry_space_group_name_H-M    P1
_symmetry_Int_Tables_number       1
_space_group_crystal_system       triclinic
_cell_length_a                    27.725877
_cell_length_b                    10.602168
_cell_length_c                    9.5583
_cell_angle_alpha                 91.170159
_cell_angle_beta                  90.867193
_cell_angle_gamma                 89.958498
_cell_volume                      2808.79645669

loop_
_atom_site_label
_atom_site_type_symbol
_atom_type_description
_atom_site_fract_x
_atom_site_fract_y
_atom_site_fract_z
_atom_type_partial_charge
C1    C     C_R   0.499606 0.259891 0.498808 0.535063
C2    C     C_R   0.874578 0.383479 0.491374 0.024286
C3    C     C_R   0.354753 0.501099 0.498732 0.002233
C4    C     C_R   0.645104 0.495345 0.505354 0.010029
C5    C     C_R   0.975628 0.374319 0.531855 0.013619
C6    C     C_R   0.024716 0.603293 0.562959 0.014166
C7    C     C_R   0.974927 0.600252 0.594518 0.027321
C8    C     C_R   0.025984 0.371504 0.559570 0.027503
C9    C     C_R   0.949936 0.487139 0.560583 0.013067
C10   C     C_R   0.050636 0.488199 0.556905 0.013121
C11   C     C_R   0.950793 0.273301 0.465828 -0.147265
C12   C     C_R   0.499215 0.740122 0.501115 0.537357
C13   C     C_R   0.048600 0.714537 0.525953 -0.148589
C14   C     C_R   0.900957 0.278276 0.444529 -0.122286
C15   C     C_R   0.098063 0.714432 0.501717 -0.123581
C16   C     C_R   0.407822 0.499815 0.499129 0.537576
C17   C     C_R   0.592127 0.499357 0.501135 0.551677
C18   C     C_R   0.052947 0.260312 0.590689 0.001083
C19   C     C_R   0.948818 0.701995 0.658319 0.000559
C20   C     C_3   0.536484 0.043661 0.574656 -0.131224
C21   C     C_3   0.460419 0.956195 0.425176 -0.125805
C22   C     C_3   0.539311 0.955785 0.443881 -0.132502
C23   C     C_R   0.101229 0.490094 0.545539 -0.039764
C24   C     C_3   0.457585 0.044638 0.555683 -0.128691
C25   C     C_3   0.498274 0.877336 0.502511 0.050820
C26   C     C_3   0.498826 0.122735 0.497232 0.048614
C27   C     C_3   0.495309 0.963338 0.632983 -0.118307
C28   C     C_3   0.501569 0.036775 0.366759 -0.119383
C29   C     C_3   0.515063 0.607530 0.052376 0.105259
C30   C     C_3   0.485001 0.392449 0.947583 0.102077
C31   C     C_3   0.472035 0.587952 0.951040 0.107964
C32   C     C_3   0.528069 0.412018 0.049142 0.110899
C33   C     C_3   0.542487 0.519218 0.953242 0.240857
C34   C     C_R   0.899171 0.487224 0.552184 -0.039196
C35   C     C_3   0.457624 0.480798 0.046643 0.240461
C36   C     C_R   0.178428 0.384309 0.557925 0.376798
C37   C     C_R   0.822534 0.587087 0.599176 0.380633
C38   C     C_R   0.175111 0.601591 0.497576 0.428487
C39   C     C_R   0.824253 0.389458 0.475146 0.429320
C40   C     C_R   0.280289 0.590874 0.591340 0.217494
C41   C     C_R   0.719453 0.384973 0.568473 0.215742
C42   C     C_R   0.330190 0.601754 0.567067 0.101323
C43   C     C_R   0.668962 0.384819 0.549325 0.106925
C44   C     C_R   0.327923 0.400475 0.436303 -0.039796
C45   C     C_R   0.127850 0.378827 0.562365 0.008639
C46   C     C_R   0.672361 0.602507 0.471176 -0.054084
C47   C     C_R   0.277505 0.406930 0.436043 -0.091598
C48   C     C_R   0.722726 0.595022 0.472733 -0.099663
C49   C     C_R   0.253344 0.497565 0.517349 0.202943
C50   C     C_R   0.746694 0.488810 0.524206 0.202997
C51   C     C_3   0.351129 0.283807 0.371732 -0.279184
C52   C     C_3   0.336638 0.164439 0.447183 -0.439708
C53   C     C_3   0.649293 0.729651 0.448400 -0.278416
C54   C     C_3   0.638174 0.792989 0.589424 -0.426073
C55   C     C_3   0.437196 0.687426 0.893754 -0.252531
C56   C     C_R   0.873166 0.591553 0.602624 0.009403
C57   C     C_3   0.415250 0.771870 0.007831 -0.472249
C58   C     C_3   0.562326 0.311378 0.107708 -0.254983
C59   C     C_3   0.585313 0.228748 0.993737 -0.476207
C60   C     C_3   0.533346 0.734719 0.112692 -0.246825
C61   C     C_3   0.554210 0.821229 0.003031 -0.487851
C62   C     C_3   0.466296 0.265865 0.886377 -0.246523
C63   C     C_3   0.444816 0.179442 0.995096 -0.488096
C64   C     C_3   0.630563 0.543989 0.991440 -0.327905
C65   C     C_3   0.369550 0.457703 0.008416 -0.329892
C66   C     C_3   0.639476 0.191349 0.445962 -0.326414
C67   C     C_R   0.103637 0.266030 0.589536 -0.109466
C68   C     C_3   0.343640 0.820291 0.515270 -0.320957
C69   C     C_3   0.754161 0.305867 0.782048 -0.291677
C70   C     C_3   0.243653 0.610913 0.818781 -0.297266
C71   C     C_3   0.030531 0.141902 0.650041 -0.275055
C72   C     C_3   0.004092 0.170972 0.786137 -0.424552
C73   C     C_3   0.972552 0.807365 0.745611 -0.274364
C74   C     C_3   0.002649 0.755872 0.866941 -0.422636
C75   C     C_R   0.898136 0.695816 0.659912 -0.109040
C76   C     C_R   0.125013 0.603272 0.515828 0.024212
Cu1   Cu    Cu3+1 0.500010 0.499990 0.643150 0.894729
Cu2   Cu    Cu3+1 0.499990 0.500010 0.356850 0.899626
H1    H     H_    0.566989 0.080887 0.639433 0.107394
H2    H     H_    0.115096 0.801897 0.472988 0.158835
H3    H     H_    0.969940 0.194574 0.419935 0.112377
H4    H     H_    0.028869 0.799773 0.504448 0.108383
H5    H     H_    0.572179 0.918244 0.393436 0.096861
H6    H     H_    0.424531 0.084171 0.603432 0.097362
H7    H     H_    0.345487 0.173775 0.560631 0.155895
H8    H     H_    0.297473 0.145382 0.433587 0.181123
H9    H     H_    0.356649 0.082985 0.402047 0.122564
H10   H     H_    0.339741 0.274458 0.260166 0.134839
H11   H     H_    0.391008 0.288053 0.375660 0.161699
H12   H     H_    0.429669 0.918062 0.362074 0.096868
H13   H     H_    0.606357 0.748212 0.636660 0.157989
H14   H     H_    0.669585 0.786224 0.662505 0.176499
H15   H     H_    0.630215 0.894207 0.575458 0.125854
H16   H     H_    0.673935 0.791840 0.390342 0.137672
H17   H     H_    0.615917 0.720027 0.383990 0.143142
H18   H     H_    0.408040 0.718818 0.104225 0.186632
H19   H     H_    0.439628 0.852025 0.033980 0.129957
H20   H     H_    0.380728 0.812047 0.968600 0.144746
H21   H     H_    0.455741 0.748668 0.820092 0.161745
H22   H     H_    0.407847 0.637537 0.836318 0.169196
H23   H     H_    0.492298 0.934353 0.743022 0.096671
H24   H     H_    0.561000 0.149579 0.963286 0.132126
H25   H     H_    0.593695 0.283427 0.899387 0.188092
H26   H     H_    0.619293 0.187155 0.035023 0.134032
H27   H     H_    0.591134 0.358870 0.170581 0.160795
H28   H     H_    0.542653 0.248665 0.177371 0.160264
H29   H     H_    0.592686 0.798618 0.984954 0.146842
H30   H     H_    0.533916 0.812674 0.902755 0.154553
H31   H     H_    0.552354 0.920703 0.041268 0.130458
H32   H     H_    0.502939 0.785229 0.162080 0.171245
H33   H     H_    0.561418 0.717864 0.193754 0.159251
H34   H     H_    0.504631 0.065664 0.256724 0.095282
H35   H     H_    0.464520 0.188167 0.096292 0.152314
H36   H     H_    0.406220 0.202014 0.011212 0.146134
H37   H     H_    0.446893 0.079927 0.957128 0.132203
H38   H     H_    0.438423 0.283558 0.804549 0.170688
H39   H     H_    0.496705 0.214726 0.837724 0.169469
H40   H     H_    0.589025 0.623437 0.833887 0.264869
H41   H     H_    0.661005 0.596601 0.945922 0.141707
H42   H     H_    0.643099 0.446085 0.006849 0.156901
H43   H     H_    0.621718 0.588400 0.093954 0.141911
H44   H     H_    0.411371 0.375396 0.163607 0.260430
H45   H     H_    0.256711 0.336392 0.378020 0.153942
H46   H     H_    0.339519 0.401338 0.050416 0.127438
H47   H     H_    0.378703 0.418580 0.903587 0.146970
H48   H     H_    0.356227 0.555600 0.999067 0.158614
H49   H     H_    0.610699 0.281621 0.620989 0.267413
H50   H     H_    0.674345 0.187364 0.390033 0.170914
H51   H     H_    0.630524 0.094115 0.475686 0.135745
H52   H     H_    0.610826 0.226900 0.374640 0.144532
H53   H     H_    0.391121 0.709301 0.622444 0.263483
H54   H     H_    0.357506 0.800035 0.408673 0.142142
H55   H     H_    0.304215 0.837718 0.507687 0.189547
H56   H     H_    0.743668 0.675361 0.440618 0.155989
H57   H     H_    0.361109 0.906979 0.558549 0.134562
H58   H     H_    0.727199 0.195271 0.617847 0.281562
H59   H     H_    0.774394 0.224359 0.824488 0.146820
H60   H     H_    0.720393 0.318586 0.842042 0.140319
H61   H     H_    0.777022 0.391367 0.795651 0.173493
H62   H     H_    0.274173 0.756826 0.712230 0.276038
H63   H     H_    0.224543 0.679420 0.887727 0.146650
H64   H     H_    0.276294 0.576573 0.875045 0.128276
H65   H     H_    0.219011 0.530425 0.796167 0.175924
H66   H     H_    0.028474 0.221001 0.862013 0.159769
H67   H     H_    0.124355 0.181890 0.611758 0.159548
H68   H     H_    0.992188 0.081681 0.833376 0.129887
H69   H     H_    0.971716 0.229941 0.766659 0.166579
H70   H     H_    0.006366 0.092133 0.574810 0.128509
H71   H     H_    0.058945 0.071358 0.674825 0.134238
H72   H     H_    0.980278 0.693469 0.931674 0.159805
H73   H     H_    0.034264 0.702173 0.828246 0.167093
H74   H     H_    0.016105 0.835511 0.933937 0.134624
H75   H     H_    0.994483 0.870889 0.682759 0.132716
H76   H     H_    0.944698 0.870091 0.792412 0.134648
H77   H     H_    0.878024 0.773044 0.706798 0.158233
H78   H     H_    0.883199 0.199102 0.392201 0.159630
N1    N     N_R   0.201264 0.494373 0.524135 -0.385750
N2    N     N_2   0.257241 0.671992 0.691209 -0.467849
N3    N     N_R   0.798836 0.488134 0.533385 -0.382815
N4    N     N_3   0.500040 0.499970 0.858290 -0.257563
N5    N     N_3   0.499960 0.500030 0.141710 -0.256665
N6    N     N_2   0.589530 0.545295 0.895928 -0.486009
N7    N     N_2   0.410631 0.454664 0.103675 -0.483352
N8    N     N_2   0.643025 0.271216 0.570314 -0.539206
N9    N     N_2   0.354532 0.716187 0.606025 -0.544590
N10   N     N_2   0.742896 0.282334 0.635619 -0.462689
O1    O     O_R   0.500020 0.316850 0.620870 -0.519805
O2    O     O_2   0.797274 0.680563 0.662070 -0.526914
O3    O     O_2   0.801046 0.297939 0.400667 -0.500548
O4    O     O_2   0.197429 0.706194 0.453139 -0.498787
O5    O     O_R   0.499980 0.683150 0.379130 -0.515654
O6    O     O_R   0.500000 0.316860 0.379090 -0.526136
O7    O     O_R   0.500000 0.683140 0.620910 -0.528310
O8    O     O_R   0.430270 0.500020 0.620880 -0.523969
O9    O     O_R   0.569730 0.499980 0.379120 -0.519986
O10   O     O_R   0.430250 0.500030 0.379090 -0.477146
O11   O     O_R   0.569750 0.499970 0.620910 -0.483278
O12   O     O_2   0.204510 0.280802 0.589044 -0.527778

loop_
_geom_bond_atom_site_label_1
_geom_bond_atom_site_label_2
_ccdc_geom_bond_type
C69   H61   S    
C3    C42   A    
C34   C56   A    
H49   N8    S    
C23   C45   A    
C53   H17   S    
C73   C74   S    
C24   C27   S    
C32   C58   S    
C23   C76   A    
C61   H31   S    
C47   C49   A    
C4    C46   A    
C53   C54   S    
C11   H3    S    
C30   N4    S    
C5    C9    A    
C35   N5    S    
C64   H41   S    
C20   C26   S    
C30   C35   S    
C59   H26   S    
C40   N2    S    
C52   H7    S    
C24   C26   S    
C5    C11   A    
C30   C62   S    
C11   C14   A    
C33   N4    S    
C1    O1    A    
C17   O11   A    
C40   C49   A    
C29   C33   S    
C69   H60   S    
C72   H66   S    
C65   H46   S    
C68   H54   S    
C61   H30   S    
C69   N10   S    
C62   H39   S    
H62   N2    S    
C71   H71   S    
C37   C56   A    
C2    C39   A    
H40   N6    S    
C54   H15   S    
C22   C25   S    
C55   H22   S    
C45   C67   A    
C37   O2    S    
C31   N4    S    
C44   C47   A    
C66   H51   S    
C63   H37   S    
C43   N8    S    
C16   O10   A    
C40   C42   A    
C15   C76   A    
C56   C75   A    
C22   C28   S    
C32   N5    S    
Cu2   O10   S    
C41   C43   A    
C74   H74   S    
C2    C14   A    
C16   O8    A    
C22   H5    S    
C38   O4    S    
C12   O5    A    
C21   H12   S    
C52   H9    S    
C69   H59   S    
C46   C48   A    
C3    C44   A    
C70   H64   S    
C51   C52   S    
C29   N5    S    
C19   C73   S    
C36   O12   S    
C49   N1    S    
C64   N6    S    
C38   C76   A    
C18   C67   A    
Cu1   Cu2   S    
C13   H4    S    
C27   H23   S    
C28   H34   S    
C67   H67   S    
C32   C33   S    
C60   C61   S    
C70   N2    S    
C65   H47   S    
C73   H76   S    
C54   H14   S    
C62   C63   S    
C47   H45   S    
C15   H2    S    
C29   C60   S    
C57   H19   S    
C41   N10   S    
C65   N7    S    
Cu2   O6    S    
C70   H65   S    
C66   N8    S    
C36   C45   A    
C55   C57   S    
C48   C50   A    
C36   N1    A    
C31   C55   S    
C4    C17   S    
C44   C51   S    
C8    C10   A    
C35   N7    S    
C4    C43   A    
C21   C28   S    
C20   C22   S    
C7    C19   A    
C13   C15   A    
C1    C26   S    
C10   C23   A    
C31   C35   S    
C74   H73   S    
Cu1   O1    S    
C8    C18   A    
C73   H75   S    
C63   H36   S    
C41   C50   A    
C48   H56   S    
C18   C71   S    
C7    C9    A    
C21   C25   S    
C68   H55   S    
C70   H63   S    
Cu1   O7    S    
C20   H1    S    
C14   H78   S    
C53   H16   S    
C59   H24   S    
C39   N3    A    
C68   H57   S    
C38   N1    A    
C51   H10   S    
C6    C10   A    
C5    C8    A    
C17   O9    A    
C42   N9    S    
C6    C7    A    
C20   C27   S    
C50   N3    S    
C25   C27   S    
C72   H69   S    
C1    O6    A    
C26   C28   S    
C64   H42   S    
C12   C25   S    
C58   H27   S    
C59   H25   S    
C65   H48   S    
C37   N3    A    
C19   C75   A    
C33   N6    S    
C58   C59   S    
C54   H13   S    
C39   O3    S    
C60   H33   S    
C68   N9    S    
C6    C13   A    
C30   C32   S    
C2    C34   A    
Cu2   O9    S    
H58   N10   S    
C72   H68   S    
C57   H20   S    
C46   C53   S    
C52   H8    S    
Cu2   O5    S    
C66   H50   S    
C9    C34   A    
C71   H70   S    
Cu1   O8    S    
C24   H6    S    
C61   H29   S    
Cu1   O11   S    
C60   H32   S    
C62   H38   S    
H44   N7    S    
Cu1   N4    S    
C63   H35   S    
C75   H77   S    
C71   C72   S    
H53   N9    S    
Cu2   N5    S    
C29   C31   S    
C21   C24   S    
C55   H21   S    
C74   H72   S    
C57   H18   S    
C58   H28   S    
C51   H11   S    
C3    C16   S    
C64   H43   S    
C12   O7    A    
C66   H52   S    
