data_mof_unit_pretest_826.cif
_audit_creation_date              2012-12-11T16:16:20-0500
_audit_creation_method            fapswitch 2.2
_symmetry_space_group_name_H-M    P1
_symmetry_Int_Tables_number       1
_space_group_crystal_system       triclinic
_cell_length_a                    7.180724
_cell_length_b                    26.026392
_cell_length_c                    28.741485
_cell_angle_alpha                 90.0
_cell_angle_beta                  90.000034
_cell_angle_gamma                 90.000075
_cell_volume                      5371.44835375

loop_
_atom_site_label
_atom_site_type_symbol
_atom_type_description
_atom_site_fract_x
_atom_site_fract_y
_atom_site_fract_z
_atom_type_partial_charge
O1    O     O_R   0.600980 0.796780 0.202430 -0.536484
O2    O     O_R   0.399020 0.203220 0.797570 -0.540162
O3    O     O_R   0.399020 0.203220 0.702430 -0.536484
O4    O     O_R   0.600980 0.796780 0.297570 -0.540162
O5    O     O_R   0.100980 0.703220 0.297570 -0.536484
O6    O     O_R   0.899020 0.296780 0.702430 -0.540162
O7    O     O_R   0.899020 0.296780 0.797570 -0.536484
O8    O     O_R   0.100980 0.703220 0.202430 -0.540162
O9    O     O_R   0.271240 0.802920 0.297240 -0.534305
O10   O     O_R   0.728760 0.197080 0.702760 -0.534936
O11   O     O_R   0.728760 0.197080 0.797240 -0.534303
O12   O     O_R   0.271240 0.802920 0.202760 -0.534938
O13   O     O_R   0.771240 0.697080 0.202760 -0.534306
O14   O     O_R   0.228760 0.302920 0.797240 -0.534936
O15   O     O_R   0.228760 0.302920 0.702760 -0.534306
O16   O     O_R   0.771240 0.697080 0.297240 -0.534935
C1    C     C_R   0.439604 0.815410 0.312842 0.714034
C2    C     C_R   0.560374 0.184689 0.687006 0.724495
C3    C     C_R   0.560396 0.184589 0.812842 0.714033
C4    C     C_R   0.439626 0.815311 0.187005 0.724495
C5    C     C_R   0.939604 0.684589 0.187158 0.714032
C6    C     C_R   0.060374 0.315311 0.812994 0.724496
C7    C     C_R   0.060396 0.315410 0.687158 0.714031
C8    C     C_R   0.939626 0.684689 0.312994 0.724496
O17   O     O_3   0.434470 0.717290 0.250000 -0.375935
O18   O     O_3   0.565530 0.282710 0.750000 -0.375937
O19   O     O_3   0.934470 0.782710 0.250000 -0.375937
O20   O     O_3   0.065530 0.217290 0.750000 -0.375935
V1    V     V_3+5 0.159620 0.756070 0.250000 1.439357
V2    V     V_3+5 0.840380 0.243930 0.750000 1.439363
V3    V     V_3+5 0.659620 0.743930 0.250000 1.439359
V4    V     V_3+5 0.340380 0.256070 0.750000 1.439360
C9    C     C_R   0.115077 0.644221 0.378842 -0.202725
C10   C     C_R   0.884965 0.383760 0.644284 -0.216178
C11   C     C_R   0.884924 0.355777 0.878842 -0.202727
C12   C     C_R   0.115035 0.616240 0.144283 -0.216178
C13   C     C_R   0.615074 0.855774 0.121156 -0.202731
C14   C     C_R   0.384962 0.116242 0.855720 -0.216175
C15   C     C_R   0.384923 0.144222 0.621158 -0.202726
C16   C     C_R   0.615036 0.883760 0.355717 -0.216177
H1    H     H_    0.227459 0.670690 0.371215 0.138872
H2    H     H_    0.772920 0.378094 0.669014 0.138554
H3    H     H_    0.772544 0.329308 0.871216 0.138871
H4    H     H_    0.227081 0.621907 0.169013 0.138554
H5    H     H_    0.727448 0.829302 0.128781 0.138871
H6    H     H_    0.272911 0.121910 0.830991 0.138554
H7    H     H_    0.272543 0.170691 0.628784 0.138872
H8    H     H_    0.727082 0.878093 0.330987 0.138554
C17   C     C_R   0.136557 0.609401 0.416069 0.152457
C18   C     C_R   0.862905 0.420658 0.608726 0.155148
C19   C     C_R   0.863443 0.390597 0.916070 0.152458
C20   C     C_R   0.137094 0.579343 0.108725 0.155146
C21   C     C_R   0.636559 0.890593 0.083928 0.152462
C22   C     C_R   0.362907 0.079345 0.891278 0.155142
C23   C     C_R   0.363442 0.109402 0.583930 0.152457
C24   C     C_R   0.637095 0.920657 0.391275 0.155147
C25   C     C_R   0.989323 0.574465 0.426594 -0.065973
C26   C     C_R   0.009774 0.428275 0.575973 -0.065909
C27   C     C_R   0.010674 0.425534 0.926594 -0.065978
C28   C     C_R   0.990223 0.571726 0.075972 -0.065903
C29   C     C_R   0.489335 0.925533 0.073405 -0.065994
C30   C     C_R   0.509785 0.071727 0.924028 -0.065885
C31   C     C_R   0.510674 0.074465 0.573406 -0.065976
C32   C     C_R   0.490224 0.928274 0.424028 -0.065904
C33   C     C_R   0.825774 0.577014 0.399650 -0.185373
C34   C     C_R   0.173559 0.399068 0.581243 -0.184893
C35   C     C_R   0.174223 0.422986 0.899650 -0.185372
C36   C     C_R   0.826438 0.600932 0.081243 -0.184895
C37   C     C_R   0.325790 0.922988 0.100351 -0.185370
C38   C     C_R   0.673574 0.100931 0.918755 -0.184899
C39   C     C_R   0.674223 0.077014 0.600350 -0.185372
C40   C     C_R   0.326438 0.899068 0.418757 -0.184895
H9    H     H_    0.711409 0.550978 0.406633 0.164186
H10   H     H_    0.287485 0.403643 0.556879 0.164174
H11   H     H_    0.288586 0.449022 0.906632 0.164189
H12   H     H_    0.712510 0.596356 0.056880 0.164170
H13   H     H_    0.211430 0.949026 0.093370 0.164203
H14   H     H_    0.787505 0.096353 0.943117 0.164158
H15   H     H_    0.788587 0.050978 0.593368 0.164188
H16   H     H_    0.212510 0.903643 0.443120 0.164171
C41   C     C_R   0.803413 0.612899 0.363798 0.331591
C42   C     C_R   0.196384 0.363803 0.617543 0.329223
C43   C     C_R   0.196585 0.387102 0.863798 0.331590
C44   C     C_R   0.803613 0.636197 0.117543 0.329223
C45   C     C_R   0.303424 0.887104 0.136203 0.331586
C46   C     C_R   0.696394 0.136196 0.882455 0.329228
C47   C     C_R   0.696585 0.112898 0.636202 0.331591
C48   C     C_R   0.303614 0.863803 0.382456 0.329225
C49   C     C_R   0.950716 0.646786 0.352244 -0.150421
C50   C     C_R   0.049528 0.354996 0.649428 -0.146346
C51   C     C_R   0.049283 0.353214 0.852244 -0.150421
C52   C     C_R   0.950471 0.645004 0.149428 -0.146345
C53   C     C_R   0.450718 0.853213 0.147756 -0.150418
C54   C     C_R   0.549529 0.145005 0.850572 -0.146347
C55   C     C_R   0.549283 0.146786 0.647756 -0.150420
C56   C     C_R   0.450472 0.854996 0.350572 -0.146345
N1    N     N_R   0.835552 0.517203 0.483976 -0.290289
N2    N     N_R   0.162956 0.483782 0.517144 -0.290421
N3    N     N_R   0.164444 0.482804 0.983971 -0.290289
N4    N     N_R   0.837039 0.516211 0.017150 -0.290421
N5    N     N_R   0.335567 0.982828 0.016046 -0.290288
N6    N     N_R   0.662974 0.016189 0.982831 -0.290421
N7    N     N_R   0.664445 0.017198 0.516027 -0.290289
N8    N     N_R   0.337040 0.983786 0.482852 -0.290421
N9    N     N_R   0.838958 0.483107 0.518598 -0.284665
N10   N     N_R   0.159546 0.517563 0.482287 -0.284386
N11   N     N_R   0.161038 0.516900 0.018592 -0.284663
N12   N     N_R   0.840449 0.482430 0.982293 -0.284388
N13   N     N_R   0.338973 0.016924 0.981425 -0.284653
N14   N     N_R   0.659565 0.982408 0.017687 -0.284397
N15   N     N_R   0.661039 0.983102 0.481406 -0.284663
N16   N     N_R   0.340449 0.017567 0.517709 -0.284387
C57   C     C_R   0.002608 0.466101 0.536565 0.530517
C58   C     C_R   0.995990 0.535753 0.465271 0.531754
C59   C     C_R   0.997388 0.533899 0.036565 0.530518
C60   C     C_R   0.004006 0.464247 0.965271 0.531752
C61   C     C_R   0.502623 0.033900 0.963435 0.530516
C62   C     C_R   0.496005 0.964247 0.034728 0.531750
C63   C     C_R   0.497388 0.966101 0.463435 0.530516
C64   C     C_R   0.504007 0.035752 0.534729 0.531751
C65   C     C_3   0.315841 0.612672 0.443926 -0.325740
C66   C     C_3   0.283422 0.636593 0.491789 -0.699482
H17   H     H_    0.228937 0.676306 0.487854 0.224302
H18   H     H_    0.182854 0.613850 0.512583 0.234828
H19   H     H_    0.417328 0.638275 0.511054 0.223298
H20   H     H_    0.383777 0.574608 0.446792 0.216403
H21   H     H_    0.419772 0.637133 0.425731 0.167572
C67   C     C_3   0.683211 0.451383 0.608499 -0.325536
C68   C     C_3   0.714893 0.506669 0.624518 -0.701457
H22   H     H_    0.769054 0.506972 0.660723 0.221525
H23   H     H_    0.815487 0.526937 0.601728 0.235341
H24   H     H_    0.580770 0.527887 0.623735 0.223631
H25   H     H_    0.615302 0.450088 0.573926 0.215882
H26   H     H_    0.579610 0.434097 0.632605 0.169359
C69   C     C_3   0.684158 0.387325 0.943926 -0.325735
C70   C     C_3   0.716577 0.363403 0.991789 -0.699474
H27   H     H_    0.771056 0.323689 0.987853 0.224299
H28   H     H_    0.817151 0.386144 0.012583 0.234829
H29   H     H_    0.582672 0.361721 0.011054 0.223295
H30   H     H_    0.616221 0.425389 0.946793 0.216402
H31   H     H_    0.580227 0.362865 0.925730 0.167568
C71   C     C_3   0.316788 0.548618 0.108498 -0.325538
C72   C     C_3   0.285104 0.493331 0.124514 -0.701468
H32   H     H_    0.230932 0.493027 0.160718 0.221530
H33   H     H_    0.184523 0.473062 0.101721 0.235340
H34   H     H_    0.419230 0.472114 0.123734 0.223632
H35   H     H_    0.384696 0.549914 0.073924 0.215883
H36   H     H_    0.420387 0.565902 0.132604 0.169361
C73   C     C_3   0.815842 0.887317 0.056071 -0.325726
C74   C     C_3   0.783418 0.863388 0.008211 -0.699455
H37   H     H_    0.728954 0.823673 0.012152 0.224294
H38   H     H_    0.682828 0.886124 0.987417 0.234835
H39   H     H_    0.917317 0.861708 0.988944 0.223289
H40   H     H_    0.883785 0.925380 0.053201 0.216399
H41   H     H_    0.919773 0.862859 0.074269 0.167558
C75   C     C_3   0.183211 0.048621 0.891509 -0.325547
C76   C     C_3   0.214889 0.993331 0.875499 -0.701478
H42   H     H_    0.269078 0.993022 0.839297 0.221534
H43   H     H_    0.315454 0.973064 0.898298 0.235333
H44   H     H_    0.080757 0.972117 0.876278 0.223637
H45   H     H_    0.115308 0.049921 0.926083 0.215886
H46   H     H_    0.079612 0.065903 0.867401 0.169369
C77   C     C_3   0.184157 0.112674 0.556074 -0.325736
C78   C     C_3   0.216576 0.136595 0.508211 -0.699475
H47   H     H_    0.271058 0.176309 0.512147 0.224300
H48   H     H_    0.317147 0.113853 0.487417 0.234828
H49   H     H_    0.082671 0.138277 0.488946 0.223296
H50   H     H_    0.116221 0.074609 0.553207 0.216402
H51   H     H_    0.080226 0.137133 0.574270 0.167570
C79   C     C_3   0.816791 0.951381 0.391503 -0.325537
C80   C     C_3   0.785111 0.006669 0.375486 -0.701463
H52   H     H_    0.730947 0.006973 0.339282 0.221528
H53   H     H_    0.684524 0.026937 0.398278 0.235341
H54   H     H_    0.919238 0.027885 0.376269 0.223632
H55   H     H_    0.884698 0.950085 0.426076 0.215883
H56   H     H_    0.920390 0.934096 0.367397 0.169360
O21   O     O_3   0.637859 0.612484 0.339850 -0.637634
H57   H     H_    0.578651 0.646242 0.345773 0.287046
O22   O     O_3   0.360827 0.336884 0.619362 -0.643826
H58   H     H_    0.421421 0.346619 0.649039 0.289529
O23   O     O_3   0.362138 0.387517 0.839849 -0.637635
H59   H     H_    0.421347 0.353760 0.845772 0.287047
O24   O     O_3   0.639170 0.663115 0.119363 -0.643826
H60   H     H_    0.578578 0.653380 0.149040 0.289529
O25   O     O_3   0.137875 0.887521 0.160153 -0.637635
H61   H     H_    0.078657 0.853765 0.154231 0.287050
O26   O     O_3   0.860841 0.163112 0.880633 -0.643825
H62   H     H_    0.921428 0.153375 0.850956 0.289527
O27   O     O_3   0.862138 0.112484 0.660150 -0.637634
H63   H     H_    0.921347 0.146241 0.654228 0.287047
O28   O     O_3   0.139170 0.836885 0.380637 -0.643826
H64   H     H_    0.078577 0.846620 0.350960 0.289528

loop_
_geom_bond_atom_site_label_1
_geom_bond_atom_site_label_2
_ccdc_geom_bond_type
O17   V3    S    
C48   O28   S    
C4    C53   S    
C48   C56   A    
O18   V4    S    
C76   H42   S    
C41   O21   S    
O12   V1    S    
C38   H14   S    
N1    C58   A    
C37   H13   S    
C77   C78   S    
C10   H2    S    
C80   H52   S    
C67   C68   S    
N14   C62   A    
C39   H15   S    
N13   C61   A    
C69   C70   S    
C79   H56   S    
O23   H59   S    
O16   V3    S    
C35   C43   A    
C80   H53   S    
O11   C3    A    
C32   C63   S    
N10   C58   A    
N5    C62   A    
N9    C57   A    
C78   H47   S    
C46   C54   A    
C65   H21   S    
C67   H26   S    
C22   C75   S    
O19   V1    S    
C79   C80   S    
N5    N13   A    
C72   H32   S    
C34   H10   S    
C72   H33   S    
O1    V3    S    
C33   H9    S    
C30   C38   A    
O3    C2    A    
O2    V4    S    
C30   C61   S    
C20   C28   A    
C27   C35   A    
C19   C69   S    
C26   C34   A    
C15   C23   A    
N7    C64   A    
O11   V2    S    
C27   C60   S    
C16   C24   A    
C74   H39   S    
C23   C31   A    
C42   O22   S    
C26   C57   S    
C6    C51   S    
C24   C32   A    
C11   H3    S    
C12   C20   A    
O9    V1    S    
C47   O27   S    
C68   H24   S    
C41   C49   A    
C12   C52   A    
O15   C7    A    
O2    C3    A    
C75   H46   S    
C46   O26   S    
C76   H43   S    
O7    V2    S    
C8    C49   S    
C21   C73   S    
C2    C55   S    
O12   C4    A    
O3    V4    S    
N4    C59   A    
C21   C29   A    
C16   C56   A    
C70   H29   S    
C40   C48   A    
O5    V1    S    
C79   H55   S    
C44   O24   S    
C45   O25   S    
C69   H30   S    
C80   H54   S    
C10   C18   A    
N4    N12   A    
O13   C5    A    
O28   H64   S    
C36   C44   A    
C71   H36   S    
C18   C67   S    
O15   V4    S    
C70   H28   S    
C72   H34   S    
O14   V4    S    
N3    C60   A    
N16   C64   A    
N2    C57   A    
C22   C30   A    
C15   H7    S    
C20   C71   S    
C47   C55   A    
C18   C26   A    
C73   H40   S    
C10   C50   A    
O24   H60   S    
C9    C49   A    
C34   C42   A    
O10   V2    S    
C33   C41   A    
C45   C53   A    
C14   C22   A    
C17   C65   S    
C14   C54   A    
O8    C5    A    
C7    C50   S    
C13   C53   A    
C1    C56   S    
C3    C54   S    
N11   C59   A    
C65   C66   S    
N6    C61   A    
C39   C47   A    
O4    C1    A    
N15   C63   A    
O9    C1    A    
O6    V2    S    
C31   C39   A    
C75   H45   S    
C76   H44   S    
C11   C19   A    
O14   C6    A    
C74   H38   S    
N6    N14   A    
C35   H11   S    
O8    V1    S    
C13   H5    S    
C43   C51   A    
C38   C46   A    
C37   C45   A    
N8    N16   A    
C68   H22   S    
C29   C37   A    
C16   H8    S    
C75   C76   S    
O1    C4    A    
C24   C79   S    
C29   C62   S    
C74   H37   S    
C71   H35   S    
O13   V3    S    
C78   H49   S    
C25   C33   A    
C70   H27   S    
N2    N10   A    
C17   C25   A    
C25   C58   S    
N7    N15   A    
C36   H12   S    
O7    C6    A    
N3    N11   A    
C42   C50   A    
C9    H1    S    
N8    C63   A    
C66   H19   S    
C78   H48   S    
C77   H50   S    
C15   C55   A    
N1    N9    A    
C65   H20   S    
C40   H16   S    
C67   H25   S    
C31   C64   S    
N12   C60   A    
O25   H61   S    
O5    C8    A    
O10   C2    A    
O6    C7    A    
O20   V2    S    
C32   C40   A    
C73   H41   S    
O27   H63   S    
C77   H51   S    
C14   H6    S    
O4    V3    S    
C12   H4    S    
C13   C21   A    
C23   C77   S    
O22   H58   S    
C69   H31   S    
C19   C27   A    
C28   C36   A    
O16   C8    A    
O21   H57   S    
C9    C17   A    
C43   O23   S    
C71   C72   S    
C28   C59   S    
O26   H62   S    
C44   C52   A    
C66   H17   S    
C73   C74   S    
C66   H18   S    
C68   H23   S    
C5    C52   S    
C11   C51   A    
