data_mof_unit_pretest_650.cif
_audit_creation_date              2012-12-10T16:59:15-0500
_audit_creation_method            fapswitch 2.2
_symmetry_space_group_name_H-M    P1
_symmetry_Int_Tables_number       1
_space_group_crystal_system       triclinic
_cell_length_a                    7.723006
_cell_length_b                    8.556241
_cell_length_c                    27.793191
_cell_angle_alpha                 91.045652
_cell_angle_beta                  86.10026
_cell_angle_gamma                 93.721948
_cell_volume                      1828.27766265

loop_
_atom_site_label
_atom_site_type_symbol
_atom_type_description
_atom_site_fract_x
_atom_site_fract_y
_atom_site_fract_z
_atom_type_partial_charge
C1    C     C_R   0.545979 0.794923 0.498734 0.973096
C2    C     C_R   0.538616 0.638070 0.127468 -0.022263
C3    C     C_R   0.507825 0.499105 0.646828 -0.104077
C4    C     C_R   0.492162 0.500826 0.353171 -0.104077
C5    C     C_R   0.540105 0.641900 0.025727 0.048273
C6    C     C_R   0.459746 0.357636 0.974272 0.048276
C7    C     C_R   0.459239 0.357005 0.025290 0.048141
C8    C     C_R   0.540441 0.642557 0.974714 0.048180
C9    C     C_R   0.499506 0.499133 0.050657 0.073368
C10   C     C_R   0.500268 0.500426 0.949344 0.073362
C11   C     C_R   0.579214 0.779685 0.052981 -0.225483
C12   C     C_R   0.454021 0.205077 0.501266 0.973088
C13   C     C_R   0.420947 0.219813 0.947005 -0.225439
C14   C     C_R   0.578286 0.777400 0.102785 -0.136385
C15   C     C_R   0.421937 0.222128 0.897197 -0.136344
C16   C     C_R   0.502831 0.499085 0.594026 0.880320
C17   C     C_R   0.497168 0.500907 0.405973 0.880315
C18   C     C_R   0.579862 0.781038 0.947885 -0.224345
C19   C     C_R   0.419564 0.218574 0.052131 -0.224383
C20   C     C_2   0.570343 0.958352 0.498003 -0.368086
C21   C     C_2   0.429657 0.041648 0.501997 -0.368083
C22   C     C_R   0.540150 0.639303 0.822666 0.526931
C23   C     C_R   0.500662 0.501092 0.898334 -0.049096
C24   C     C_R   0.459566 0.360375 0.177345 0.526950
C25   C     C_R   0.462468 0.364803 0.822249 0.517366
C26   C     C_R   0.537615 0.634813 0.177738 0.517369
C27   C     C_R   0.650806 0.460311 0.720384 -0.139787
C28   C     C_R   0.349125 0.539427 0.279613 -0.139810
C29   C     C_R   0.655566 0.457585 0.670231 -0.037195
C30   C     C_R   0.344394 0.542262 0.329765 -0.037177
C31   C     C_R   0.358815 0.541635 0.674743 -0.243633
C32   C     C_R   0.641177 0.458280 0.325259 -0.243636
C33   C     C_R   0.355191 0.543239 0.724800 0.043640
C34   C     C_R   0.499157 0.498495 0.101667 -0.049093
C35   C     C_R   0.644774 0.456570 0.275201 0.043629
C36   C     C_R   0.502069 0.502743 0.747474 0.261598
C37   C     C_R   0.497865 0.496977 0.252525 0.261646
C38   C     C_1   0.199865 0.585434 0.752540 0.198321
C39   C     C_1   0.800099 0.414346 0.247465 0.198286
C40   C     C_1   0.187601 0.591194 0.355459 0.204711
C41   C     C_1   0.812354 0.408668 0.644531 0.204718
C42   C     C_R   0.540421 0.641321 0.872957 -0.022630
C43   C     C_R   0.459246 0.358313 0.127052 -0.022654
C44   C     C_R   0.579690 0.780019 0.898074 -0.136221
C45   C     C_R   0.419761 0.219631 0.101945 -0.136208
C46   C     C_R   0.461415 0.361506 0.872522 -0.022249
H1    H     H_    0.244559 0.574159 0.657642 0.179582
H2    H     H_    0.391128 0.113445 0.878069 0.195464
H3    H     H_    0.611809 0.892531 0.037280 0.141531
H4    H     H_    0.388660 0.106911 0.962702 0.141412
H5    H     H_    0.612102 0.893490 0.963930 0.140482
H6    H     H_    0.387058 0.106155 0.036092 0.140607
H7    H     H_    0.703147 0.009561 0.494197 0.182700
H8    H     H_    0.296852 0.990439 0.505803 0.182700
H9    H     H_    0.755454 0.425819 0.342361 0.179592
H10   H     H_    0.014381 0.383226 0.463461 0.195131
H11   H     H_    0.985619 0.616774 0.536538 0.195130
H12   H     H_    0.610980 0.889156 0.879285 0.192637
H13   H     H_    0.388331 0.110534 0.120742 0.192714
H14   H     H_    0.237395 0.571278 0.261199 0.155135
H15   H     H_    0.762513 0.428397 0.738796 0.155146
H16   H     H_    0.609318 0.886066 0.121901 0.195510
N1    N     N_R   0.501135 0.502401 0.798691 -0.357404
N2    N     N_R   0.498782 0.497262 0.201308 -0.357401
N3    N     N_2   0.950320 0.457960 0.486880 -0.163411
N4    N     N_2   0.049680 0.542040 0.513120 -0.163413
N5    N     N_1   0.075386 0.619217 0.774808 -0.178365
N6    N     N_1   0.924581 0.380539 0.225202 -0.178341
N7    N     N_1   0.061807 0.630552 0.375881 -0.185558
N8    N     N_1   0.938146 0.369322 0.624105 -0.185555
O1    O     O_R   0.389250 0.738570 0.503220 -0.614137
O2    O     O_2   0.420992 0.227174 0.202237 -0.527846
O3    O     O_2   0.575359 0.767540 0.202995 -0.529077
O4    O     O_2   0.424933 0.232062 0.796979 -0.529015
O5    O     O_R   0.610750 0.261430 0.496780 -0.614138
O6    O     O_R   0.678390 0.711630 0.494810 -0.626922
O7    O     O_R   0.321610 0.288370 0.505190 -0.626923
O8    O     O_R   0.355440 0.513440 0.575450 -0.612111
O9    O     O_R   0.644560 0.486560 0.424550 -0.612104
O10   O     O_R   0.644590 0.486500 0.567040 -0.624092
O11   O     O_R   0.355410 0.513500 0.432960 -0.624089
O12   O     O_2   0.578574 0.772556 0.797789 -0.527824
Zn1   Zn    Zn3+2 0.306940 0.517990 0.505620 0.969511
Zn2   Zn    Zn3+2 0.693060 0.482010 0.494380 0.969512

loop_
_geom_bond_atom_site_label_1
_geom_bond_atom_site_label_2
_ccdc_geom_bond_type
C27   C29   A    
C39   N6    T    
H11   N4    S    
O10   Zn2   S    
O6    Zn2   S    
C1    O1    A    
C23   C42   A    
C22   O12   S    
C35   C37   A    
C5    C11   A    
C21   H8    S    
C11   C14   A    
O5    Zn2   S    
O7    Zn1   S    
H10   N3    S    
C14   H16   S    
C17   O9    A    
C26   O3    S    
C25   O4    S    
C25   N1    A    
C3    C29   A    
C26   N2    A    
C27   H15   S    
N4    Zn1   S    
O8    Zn1   S    
C44   H12   S    
C31   C33   A    
C36   N1    S    
C32   H9    S    
C17   O11   A    
C2    C34   A    
C22   N1    A    
C24   N2    A    
C23   C46   A    
C31   H1    S    
C42   C44   A    
C15   H2    S    
C19   H6    S    
O11   Zn1   S    
C18   H5    S    
O1    Zn1   S    
C28   H14   S    
C40   N7    T    
C33   C36   A    
C32   C35   A    
N3    Zn2   S    
C12   C21   S    
C8    C18   A    
C16   O10   A    
C35   C39   S    
C5    C9    A    
O9    Zn2   S    
C11   H3    S    
C18   C44   A    
C12   O7    A    
C30   C40   S    
C2    C26   A    
C38   N5    T    
C3    C31   A    
C43   C45   A    
C4    C32   A    
C4    C17   S    
C7    C19   A    
C13   C15   A    
C9    C34   A    
C10   C23   A    
C37   N2    S    
C24   O2    S    
C7    C9    A    
C45   H13   S    
C1    C20   S    
C29   C41   S    
C1    O6    A    
C34   C43   A    
C20   H7    S    
C6    C10   A    
C5    C8    A    
C19   C45   A    
C6    C7    A    
C27   C36   A    
C33   C38   S    
C28   C30   A    
C6    C13   A    
C22   C42   A    
C28   C37   A    
C16   O8    A    
C2    C14   A    
C13   H4    S    
C20   C21   D    
C8    C10   A    
N3    N4    D    
C12   O5    A    
C24   C43   A    
C15   C46   A    
C25   C46   A    
C4    C30   A    
C3    C16   S    
C41   N8    T    
