data_mof_unit_pretest_412.cif
_audit_creation_date              2012-12-11T14:15:43-0500
_audit_creation_method            fapswitch 2.2
_symmetry_space_group_name_H-M    P1
_symmetry_Int_Tables_number       1
_space_group_crystal_system       triclinic
_cell_length_a                    11.164999
_cell_length_b                    12.706598
_cell_length_c                    23.618118
_cell_angle_alpha                 90.625981
_cell_angle_beta                  96.587761
_cell_angle_gamma                 68.51046
_cell_volume                      3095.41851161

loop_
_atom_site_label
_atom_site_type_symbol
_atom_type_description
_atom_site_fract_x
_atom_site_fract_y
_atom_site_fract_z
_atom_type_partial_charge
C1    C     C_R   0.149623 0.616435 0.429078 0.540294
C2    C     C_2   0.182118 0.231260 0.226922 -0.112657
C3    C     C_2   0.156421 0.164022 0.263311 -0.106431
C4    C     C_R   0.746661 0.606011 0.405243 0.522943
C5    C     C_1   0.133433 0.198372 0.320892 -0.015300
C6    C     C_1   0.210947 0.195621 0.170076 -0.034951
C7    C     C_1   0.116813 0.231970 0.368502 0.023483
C8    C     C_1   0.171313 0.760468 0.125684 0.001933
C9    C     C_2   0.144887 0.746824 0.234752 0.001257
C10   C     C_2   0.215648 0.652226 0.266418 -0.094225
C11   C     C_1   0.205515 0.639785 0.326077 0.055772
C12   C     C_R   0.586928 0.608501 0.321030 0.012915
C13   C     C_1   0.158963 0.749419 0.174973 -0.092254
C14   C     C_1   0.188043 0.629433 0.374714 0.046357
C15   C     C_1   0.628547 0.755015 0.865033 -0.003010
C16   C     C_R   0.101293 0.282496 0.423312 0.547256
C17   C     C_2   0.702116 0.701645 0.762371 -0.129790
C18   C     C_2   0.613383 0.703876 0.718505 -0.110381
C19   C     C_1   0.652239 0.669543 0.662828 -0.022729
C20   C     C_1   0.664776 0.732383 0.818602 -0.054593
C21   C     C_1   0.691021 0.639636 0.617425 0.019834
C22   C     C_R   0.196415 0.178064 0.854135 0.016277
C23   C     C_R   0.722569 0.722360 0.320107 -0.126106
C24   C     C_R   0.104851 0.239949 0.642912 0.017880
C25   C     C_R   0.044092 0.137026 0.712438 -0.118664
C26   C     C_R   0.041728 0.167775 0.655719 -0.115938
C27   C     C_R   0.163864 0.286378 0.686390 -0.112400
C28   C     C_R   0.147365 0.615488 0.591527 0.537897
C29   C     C_R   0.165993 0.257178 0.742700 0.043378
C30   C     C_R   0.107756 0.180201 0.756001 0.036258
C31   C     C_R   0.120846 0.143072 0.812250 -0.122527
C32   C     C_R   0.247049 0.259567 0.841304 -0.124858
C33   C     C_R   0.230287 0.300378 0.785655 -0.128802
C34   C     C_R   0.689260 0.742553 0.261900 0.024651
C35   C     C_R   0.128003 0.744602 0.853681 0.000637
C36   C     C_R   0.179422 0.632681 0.651452 -0.014868
C37   C     C_R   0.313841 0.582184 0.741779 -0.155712
C38   C     C_R   0.300122 0.572637 0.682814 -0.037860
C39   C     C_R   0.075802 0.702735 0.679246 -0.106328
C40   C     C_R   0.750097 0.602207 0.566170 0.539867
C41   C     C_R   0.090036 0.718183 0.737171 0.045049
C42   C     C_R   0.209569 0.653337 0.768887 0.005712
C43   C     C_R   0.225947 0.664504 0.827159 -0.131858
C44   C     C_R   0.007036 0.803810 0.823296 -0.156996
C45   C     C_R   0.604976 0.695022 0.233300 0.011103
C46   C     C_R   0.987517 0.794682 0.764620 -0.006071
C47   C     C_R   0.265856 0.109655 0.069573 0.540599
C48   C     C_R   0.594412 0.776895 0.082507 0.545623
C49   C     C_R   0.189106 0.788196 0.069522 0.550547
C50   C     C_R   0.241165 0.114286 0.907664 0.541466
C51   C     C_R   0.573559 0.776342 0.918064 0.549181
C52   C     C_R   0.099336 0.280490 0.585472 0.537836
C53   C     C_R   0.163880 0.785773 0.907822 0.547282
C54   C     C_R   0.636028 0.765289 0.143573 0.009761
C55   C     C_R   0.678068 0.650393 0.349296 -0.024008
C56   C     C_R   0.577694 0.708268 0.175050 -0.126403
C57   C     C_R   0.551075 0.631889 0.262757 -0.094090
C58   C     C_2   0.056615 0.853030 0.257610 0.222638
C59   C     C_1   0.778343 0.876609 0.141120 0.200549
C60   C     C_2   0.863754 0.875080 0.734642 0.188469
C61   C     C_1   0.410106 0.501342 0.655885 0.208320
C62   C     C_2   0.530200 0.539391 0.351094 0.245090
C63   C     C_R   0.718170 0.815751 0.171889 -0.026896
C64   C     C_R   0.744089 0.804286 0.231371 -0.128468
C65   C     C_1   0.235935 0.161272 0.123289 0.008005
Cr1   Cr    Cr6+3 0.189770 0.415650 0.511620 1.066146
Cr2   Cr    Cr6+3 0.930400 0.667320 0.496770 1.056071
Cr3   Cr    Cr6+3 0.879870 0.417010 0.491650 1.059894
Cr4   Cr    Cr6+3 0.149500 0.973980 0.985330 1.042080
Cr5   Cr    Cr6+3 0.457000 0.976510 0.994660 1.055127
Cr6   Cr    Cr6+3 0.411170 0.724270 0.995270 1.023205
H1    H     H_    0.509354 0.673411 0.154143 0.140635
H2    H     H_    0.319713 0.618104 0.850838 0.135908
H3    H     H_    0.931942 0.865894 0.844429 0.126474
H4    H     H_    0.406125 0.535169 0.766500 0.116472
H5    H     H_    0.980758 0.740762 0.655704 0.198219
H6    H     H_    0.484384 0.597795 0.239834 0.138541
H7    H     H_    0.808363 0.841485 0.253717 0.143536
H8    H     H_    0.792311 0.755034 0.341537 0.159335
H9    H     H_    0.155107 0.082071 0.250399 0.143856
H10   H     H_    0.184146 0.312866 0.240071 0.143592
H11   H     H_    0.278479 0.578790 0.246149 0.137145
H12   H     H_    0.511484 0.730383 0.724325 0.142308
H13   H     H_    0.002884 0.924659 0.228534 0.125118
H14   H     H_    0.776912 0.901968 0.756049 0.121764
H15   H     H_    0.522350 0.548200 0.396401 0.126071
H16   H     H_    0.804117 0.673401 0.756591 0.133133
H17   H     H_    0.082599 0.079304 0.822407 0.129919
H18   H     H_    0.304847 0.287176 0.873777 0.127530
H19   H     H_    0.998432 0.078484 0.722180 0.155479
H20   H     H_    0.273648 0.360575 0.775746 0.115259
H21   H     H_    0.992457 0.134703 0.622050 0.145370
H22   H     H_    0.207926 0.346147 0.676332 0.131671
N1    N     N_1   0.826620 0.925404 0.116448 -0.288963
N2    N     N_1   0.498376 0.444259 0.634346 -0.273411
O1    O     O_R   0.196340 0.303200 0.448500 -0.498118
O2    O     O_R   0.555390 0.700940 0.062700 -0.522420
O3    O     O_R   0.295020 0.731920 0.049950 -0.508517
O4    O     O_R   0.199310 0.519670 0.454880 -0.494456
O5    O     O_R   0.094290 0.884230 0.921550 -0.516895
O6    O     O_R   0.168980 0.069410 0.926940 -0.504617
O7    O     O_R   0.358400 0.089990 0.927950 -0.511795
O8    O     O_R   0.544850 0.873850 0.939920 -0.489390
O9    O     O_R   0.536020 0.701900 0.936430 -0.509299
O10   O     O_R   0.277070 0.732810 0.932890 -0.507797
O11   O     O_3   0.339220 0.891590 0.991750 -0.257486
O12   O     O_R   0.811960 0.658090 0.547150 -0.497404
O13   O     O_R   0.045660 0.691380 0.441680 -0.488032
O14   O     O_R   0.811930 0.659460 0.430950 -0.503462
O15   O     O_R   0.757900 0.507620 0.421760 -0.511706
O16   O     O_R   0.988630 0.322990 0.439840 -0.486637
O17   O     O_R   0.196380 0.301720 0.573850 -0.507820
O18   O     O_R   0.199350 0.518300 0.571080 -0.490740
O19   O     O_R   0.045700 0.689900 0.567030 -0.512536
O20   O     O_2   0.042913 0.863039 0.308173 -0.509497
O21   O     O_2   0.858807 0.918475 0.688150 -0.515271
O22   O     O_2   0.492254 0.471227 0.325599 -0.519551
O23   O     O_R   0.757930 0.506140 0.547110 -0.494707
O24   O     O_R   0.988670 0.321620 0.556040 -0.495986
O25   O     O_3   0.000020 0.499990 0.500010 -0.266834
O26   O     O_R   0.113660 0.883270 0.047820 -0.487657
O27   O     O_R   0.186930 0.068530 0.043990 -0.495261
O28   O     O_R   0.377770 0.089040 0.054220 -0.501231
O29   O     O_R   0.562800 0.872960 0.056970 -0.483308

loop_
_geom_bond_atom_site_label_1
_geom_bond_atom_site_label_2
_ccdc_geom_bond_type
C24   C52   S    
C40   O23   A    
C4    O14   A    
C43   H2    S    
C8    C13   T    
Cr1   O18   S    
C35   C53   S    
C41   C42   A    
C24   C27   A    
Cr6   O9    S    
C1    O4    A    
C39   C41   A    
C48   C54   S    
C48   O2    A    
Cr6   O2    S    
C45   C57   A    
C25   H19   S    
C37   C38   A    
C22   C32   A    
C19   C21   T    
Cr2   O19   S    
C24   C26   A    
C18   C19   S    
C28   O18   A    
C33   H20   S    
Cr3   O24   S    
C30   C31   A    
C11   C14   T    
Cr2   O13   S    
C27   C29   A    
C54   C63   A    
C52   O17   A    
C51   O8    A    
C53   O10   A    
C29   C33   A    
C17   C20   S    
C9    C58   S    
C37   C42   A    
C9    C13   S    
C62   O22   D    
Cr3   O23   S    
C49   O3    A    
Cr5   O28   S    
Cr2   O14   S    
C6    C65   T    
C45   C56   A    
C56   H1    S    
C41   C46   A    
Cr5   O7    S    
C59   N1    T    
C15   C51   S    
C35   C43   A    
C9    C10   D    
C22   C50   S    
C38   C61   S    
C37   H4    S    
Cr1   O25   S    
C2    C6    S    
C3    H9    S    
C44   C46   A    
C18   H12   S    
C53   O5    A    
C15   C20   T    
Cr6   O3    S    
C54   C56   A    
C16   O1    A    
C22   C31   A    
C57   H6    S    
Cr5   O11   S    
C5    C7    T    
Cr5   O8    S    
C47   O27   A    
C25   C26   A    
C10   H11   S    
Cr3   O16   S    
Cr1   O4    S    
C52   O24   A    
C29   C30   A    
C58   H13   S    
C12   C62   S    
C47   O28   A    
C32   H18   S    
Cr4   O26   S    
C60   H14   S    
C23   C34   A    
C49   O26   A    
C34   C64   A    
C17   C18   D    
C34   C45   A    
Cr3   O15   S    
C39   H5    S    
C44   H3    S    
C35   C44   A    
C28   O19   A    
C40   O12   A    
C12   C57   A    
C7    C16   S    
C50   O7    A    
Cr6   O10   S    
C4    C55   S    
C58   O20   D    
C27   H22   S    
C42   C43   A    
C62   H15   S    
Cr1   O1    S    
Cr2   O25   S    
C25   C30   A    
C4    O15   A    
C31   H17   S    
C46   C60   S    
C17   H16   S    
C64   H7    S    
C36   C39   A    
C3    C5    S    
C48   O29   A    
Cr4   O11   S    
C61   N2    T    
C23   C55   A    
Cr4   O6    S    
C59   C63   S    
C23   H8    S    
C32   C33   A    
C36   C38   A    
C2    C3    D    
C51   O9    A    
Cr3   O25   S    
Cr2   O12   S    
C21   C40   S    
Cr4   O27   S    
C12   C55   A    
C60   O21   D    
C10   C11   S    
C1    O13   A    
C63   C64   A    
Cr4   O5    S    
Cr5   O29   S    
C28   C36   S    
C50   O6    A    
Cr6   O11   S    
C2    H10   S    
C1    C14   S    
Cr1   O17   S    
C26   H21   S    
C8    C49   S    
C47   C65   S    
C16   O16   A    
