data_mof_unit_pretest_1716.cif
_audit_creation_date              2012-12-10T16:49:21-0500
_audit_creation_method            fapswitch 2.2
_symmetry_space_group_name_H-M    P1
_symmetry_Int_Tables_number       1
_space_group_crystal_system       triclinic
_cell_length_a                    18.758204
_cell_length_b                    18.904723
_cell_length_c                    18.619543
_cell_angle_alpha                 109.270225
_cell_angle_beta                  108.813141
_cell_angle_gamma                 109.398545
_cell_volume                      5140.37228835

loop_
_atom_site_label
_atom_site_type_symbol
_atom_type_description
_atom_site_fract_x
_atom_site_fract_y
_atom_site_fract_z
_atom_type_partial_charge
C1    C     C_R   0.381237 0.381442 0.501015 1.001533
C2    C     C_2   0.317317 0.320307 0.507833 -0.335629
C3    C     C_2   0.421694 0.172741 0.180741 -0.153069
C4    C     C_R   0.498315 0.617411 0.619820 0.978881
C5    C     C_2   0.493578 0.183919 0.175191 -0.335888
C6    C     C_2   0.421638 0.245658 0.241656 -0.156205
C7    C     C_2   0.493900 0.305783 0.316779 -0.331967
C8    C     C_2   0.746273 0.745453 0.422096 -0.156884
C9    C     C_2   0.805997 0.819829 0.494998 -0.330536
C10   C     C_2   0.674019 0.684286 0.422327 -0.161394
C11   C     C_2   0.686608 0.677667 0.494128 -0.324194
C12   C     C_R   0.419528 0.666294 0.689510 -0.023739
C13   C     C_R   0.381512 0.995853 0.876130 0.920165
C14   C     C_R   0.496510 0.878321 0.873137 0.882112
C15   C     C_R   0.618572 0.998059 0.117623 0.942921
C16   C     C_R   0.619083 0.617232 0.498001 0.942704
C17   C     C_R   0.497674 0.116404 0.114600 0.934297
C18   C     C_R   0.883069 0.002368 0.381222 0.928323
C19   C     C_R   0.117137 0.118021 0.497227 0.935231
C20   C     C_R   0.116816 0.997454 0.618738 0.935579
C21   C     C_R   0.878658 0.881894 0.498507 0.932447
C22   C     C_2   0.181446 0.921562 0.673598 -0.150653
C23   C     C_R   0.497435 0.681594 0.686727 -0.170546
C24   C     C_2   0.176215 0.993169 0.686732 -0.336738
C25   C     C_2   0.242925 0.921051 0.745379 -0.160842
C26   C     C_2   0.318634 0.992503 0.804131 -0.330220
C27   C     C_2   0.816314 0.076200 0.324520 -0.156385
C28   C     C_R   0.497858 0.377965 0.380359 0.924038
C29   C     C_2   0.823209 0.005623 0.312717 -0.329340
C30   C     C_2   0.755242 0.075225 0.251081 -0.155734
C31   C     C_2   0.681197 0.002458 0.190643 -0.335373
C32   C     C_R   0.347198 0.583008 0.646813 0.501801
C33   C     C_R   0.266588 0.573940 0.636152 -0.237003
C34   C     C_R   0.572565 0.762296 0.742313 -0.033401
C35   C     C_R   0.259307 0.646084 0.674659 -0.226232
C36   C     C_R   0.333202 0.726707 0.728534 -0.160123
C37   C     C_R   0.414870 0.736561 0.740034 0.046292
C38   C     C_1   0.652726 0.779952 0.739872 0.173611
C39   C     C_3   0.367006 0.490240 0.693954 0.033540
C40   C     C_3   0.462512 0.523896 0.753880 -0.336399
C41   C     C_3   0.473601 0.496049 0.823068 -0.961631
C42   C     C_R   0.570293 0.827192 0.801639 -0.235012
C43   C     C_R   0.492640 0.814131 0.801790 -0.109899
C44   C     C_2   0.177472 0.253135 0.498057 -0.199588
C45   C     C_2   0.177069 0.179684 0.487492 -0.326890
C46   C     C_2   0.238688 0.312618 0.485427 -0.124584
H1    H     H_    0.338326 0.286488 0.539618 0.144714
H2    H     H_    0.138539 0.862647 0.611458 0.166585
H3    H     H_    0.212065 0.048880 0.751403 0.157867
H4    H     H_    0.227413 0.861617 0.748148 0.157907
H5    H     H_    0.338199 0.048819 0.795663 0.158202
H6    H     H_    0.857877 0.135386 0.386535 0.163115
H7    H     H_    0.788865 0.949868 0.248270 0.157777
H8    H     H_    0.769623 0.134580 0.248322 0.163719
H9    H     H_    0.662096 0.945937 0.198807 0.156812
H10   H     H_    0.210547 0.510512 0.601118 0.147271
H11   H     H_    0.197080 0.639013 0.666462 0.157973
H12   H     H_    0.362087 0.111609 0.137880 0.166351
H13   H     H_    0.325723 0.781085 0.759963 0.151167
H14   H     H_    0.629502 0.887810 0.848583 0.168853
H15   H     H_    0.130899 0.268011 0.512572 0.164128
H16   H     H_    0.216437 0.160149 0.462774 0.157249
H17   H     H_    0.221203 0.353744 0.463064 0.185380
H18   H     H_    0.332330 0.419271 0.664338 0.185413
H19   H     H_    0.337690 0.513673 0.733533 0.135409
H20   H     H_    0.491000 0.498733 0.714821 0.254665
H21   H     H_    0.498064 0.595240 0.786780 0.221836
H22   H     H_    0.446745 0.521533 0.864031 0.267097
H23   H     H_    0.549958 0.247516 0.210666 0.156758
H24   H     H_    0.543408 0.521573 0.865481 0.267943
H25   H     H_    0.440176 0.424760 0.791990 0.265496
H26   H     H_    0.361796 0.248085 0.226438 0.165378
H27   H     H_    0.550701 0.297931 0.336517 0.157422
H28   H     H_    0.748959 0.730594 0.361780 0.165799
H29   H     H_    0.797902 0.839079 0.552375 0.162815
H30   H     H_    0.612281 0.642161 0.362828 0.166909
H31   H     H_    0.750808 0.712737 0.550196 0.163120
N1    N     N_1   0.716771 0.794030 0.737823 -0.209798
O1    O     O_R   0.460610 0.409240 0.550770 -0.642015
O2    O     O_R   0.909530 0.949160 0.358700 -0.627012
O3    O     O_R   0.090460 0.141840 0.551380 -0.621339
O4    O     O_R   0.358470 0.409870 0.449260 -0.613078
O5    O     O_R   0.090460 0.039050 0.448590 -0.622418
O6    O     O_R   0.090470 0.050840 0.641300 -0.622962
O7    O     O_R   0.090460 0.948050 0.538510 -0.616065
O8    O     O_R   0.909540 0.960950 0.551410 -0.620428
O9    O     O_R   0.909540 0.858160 0.448620 -0.619976
O10   O     O_R   0.551070 0.590720 0.641790 -0.634233
O11   O     O_R   0.448930 0.591350 0.540280 -0.611834
O12   O     O_R   0.358520 0.946380 0.906940 -0.627025
O13   O     O_R   0.641530 0.590130 0.550740 -0.618660
O14   O     O_R   0.539390 0.590760 0.449230 -0.620591
O15   O     O_R   0.551070 0.408650 0.459720 -0.626949
O16   O     O_R   0.448930 0.409280 0.358210 -0.623414
O17   O     O_R   0.460650 0.048500 0.906910 -0.622954
O18   O     O_3   0.357280 0.511022 0.625826 -0.673325
O19   O     O_R   0.551120 0.956920 0.905770 -0.623890
O20   O     O_R   0.449000 0.854790 0.905800 -0.625838
O21   O     O_R   0.641600 0.047410 0.086710 -0.616297
O22   O     O_R   0.539480 0.945290 0.086740 -0.619424
O23   O     O_R   0.551130 0.138990 0.087850 -0.627285
O24   O     O_R   0.449000 0.036870 0.087880 -0.614790
O25   O     O_R   0.909540 0.051950 0.461490 -0.619332
Zn1   Zn    Zn3+2 0.568200 0.499580 0.567780 0.954932
Zn2   Zn    Zn3+2 0.431800 0.500420 0.432220 0.966344
Zn3   Zn    Zn3+2 0.568250 0.065080 0.996810 0.953845
Zn4   Zn    Zn3+2 0.431870 0.928710 0.996840 0.951145
Zn5   Zn    Zn3+2 0.000000 0.068630 0.568630 0.952529
Zn6   Zn    Zn3+2 1.000000 0.931370 0.431370 0.953636

loop_
_geom_bond_atom_site_label_1
_geom_bond_atom_site_label_2
_ccdc_geom_bond_type
C22   H2    S    
C21   O9    A    
O16   Zn2   S    
C13   O12   A    
C27   C29   D    
C35   C36   A    
C34   C42   A    
C15   O22   A    
C3    C6    S    
C7    H27   S    
C27   H6    S    
C6    H26   S    
C39   H18   S    
C30   H8    S    
C12   C23   A    
C13   O17   A    
C36   C37   A    
O12   Zn4   S    
O7    Zn6   S    
C30   C31   D    
C5    C17   S    
C45   H16   S    
C24   H3    S    
C28   O16   A    
C1    C2    S    
O4    Zn2   S    
C12   C37   A    
C17   O23   A    
C25   H4    S    
C5    H23   S    
C11   H31   S    
O6    Zn5   S    
C10   H30   S    
C20   C24   S    
C8    C9    D    
C22   C25   S    
O2    Zn6   S    
O5    Zn6   S    
O25   Zn5   S    
O13   Zn1   S    
C41   H25   S    
C36   H13   S    
C33   H10   S    
O3    Zn5   S    
C40   H20   S    
C12   C32   A    
C27   C30   S    
C39   H19   S    
C19   O5    A    
O15   Zn1   S    
O10   Zn1   S    
C44   C46   S    
C14   O20   A    
C41   H22   S    
C42   H14   S    
C39   C40   S    
C4    C23   S    
C38   N1    T    
C1    O4    A    
C40   H21   S    
C2    C46   D    
O20   Zn4   S    
C28   O15   A    
C37   C43   A    
C17   O24   A    
O17   Zn3   S    
C11   C16   S    
C23   C34   A    
C20   O7    A    
C8    H28   S    
O24   Zn4   S    
C18   C29   S    
C4    O10   A    
O19   Zn3   S    
C8    C10   S    
C40   C41   S    
C32   O18   S    
C16   O14   A    
C20   O6    A    
C1    O1    A    
C22   C24   D    
O1    Zn1   S    
C42   C43   A    
C44   C45   D    
C14   O19   A    
C4    O11   A    
O23   Zn3   S    
O21   Zn3   S    
C21   O8    A    
O22   Zn4   S    
C34   C38   S    
O8    Zn5   S    
C15   O21   A    
C3    C5    D    
C19   C45   S    
C15   C31   S    
C6    C7    D    
O9    Zn6   S    
C44   H15   S    
C2    H1    S    
C46   H17   S    
C35   H11   S    
C32   C33   A    
C25   C26   D    
C26   H5    S    
C9    C21   S    
C29   H7    S    
C33   C35   A    
C18   O25   A    
C13   C26   S    
C39   O18   S    
C10   C11   D    
C7    C28   S    
C3    H12   S    
O14   Zn2   S    
C16   O13   A    
C18   O2    A    
O11   Zn2   S    
C41   H24   S    
C9    H29   S    
C31   H9    S    
C19   O3    A    
C14   C43   S    
