data_mof_unit_pretest_1530.cif
_audit_creation_date              2012-12-11T19:28:10-0500
_audit_creation_method            fapswitch 2.2
_symmetry_space_group_name_H-M    P1
_symmetry_Int_Tables_number       1
_space_group_crystal_system       triclinic
_cell_length_a                    8.192882
_cell_length_b                    15.087826
_cell_length_c                    16.452257
_cell_angle_alpha                 111.661069
_cell_angle_beta                  97.382013
_cell_angle_gamma                 81.73584
_cell_volume                      1864.16810128

loop_
_atom_site_label
_atom_site_type_symbol
_atom_type_description
_atom_site_fract_x
_atom_site_fract_y
_atom_site_fract_z
_atom_type_partial_charge
Ba1   Ba    Ba6+2 0.364200 0.465260 0.540900 1.847987
Ba2   Ba    Ba6+2 0.825630 0.534670 0.459090 1.874336
C1    C     C_3   0.273836 0.179440 0.761003 1.082628
C2    C     C_R   0.892621 0.529985 0.752524 -0.229808
C3    C     C_2   0.481544 0.386618 0.132698 -0.026750
C4    C     C_3   0.745985 0.312462 0.770449 1.280677
C5    C     C_2   0.452579 0.420505 0.218120 0.015714
C6    C     C_2   0.176824 0.498301 0.189612 0.018802
C7    C     C_3   0.225892 0.487699 0.100194 -0.029499
C8    C     C_3   0.351587 0.400192 0.063286 0.061388
C9    C     C_2   0.087219 0.493758 0.032127 0.545948
C10   C     C_2   0.115565 0.522806 0.967683 -0.059243
C11   C     C_R   0.830757 0.585545 0.928135 0.338020
C12   C     C_3   0.233970 0.264603 0.730418 0.238489
C13   C     C_R   0.984925 0.536747 0.901165 -0.078973
C14   C     C_R   0.709987 0.607711 0.868423 -0.076865
C15   C     C_R   0.741281 0.580427 0.780362 0.034054
C16   C     C_3   0.842515 0.268005 0.833725 -0.145382
C17   C     C_R   0.016136 0.509850 0.812375 -0.031301
C18   C     C_R   0.339510 0.817247 0.440739 -0.044381
C19   C     C_R   0.274366 0.911705 0.447957 -0.171878
C20   C     C_R   0.139567 0.101859 0.462130 -0.042895
C21   C     C_R   0.274006 0.053311 0.410663 0.623056
C22   C     C_R   0.342373 0.962172 0.406771 -0.064490
C23   C     C_3   0.019526 0.728012 0.730704 0.272339
C24   C     C_R   0.074527 0.198608 0.473982 0.013460
C25   C     C_R   0.935882 0.238756 0.522111 -0.214298
C26   C     C_R   0.123050 0.809266 0.525194 -0.032468
C27   C     C_R   0.059596 0.904015 0.534924 -0.149291
C28   C     C_3   0.717256 0.224667 0.327336 0.841145
C29   C     C_R   0.133053 0.955290 0.494946 0.031375
C30   C     C_R   0.921747 0.947712 0.582012 0.008776
C31   C     C_R   0.849907 0.037440 0.586302 0.542555
C32   C     C_R   0.921180 0.091785 0.548678 -0.050992
C33   C     C_R   0.065708 0.050337 0.502756 0.004632
C34   C     C_3   0.022275 0.775424 0.829967 -0.317510
C35   C     C_R   0.854015 0.185592 0.555463 0.056773
C36   C     C_R   0.257453 0.765780 0.475451 0.301282
C37   C     C_3   0.748445 0.115528 0.288652 0.449429
C38   C     C_3   0.494950 0.767300 0.658609 0.218166
C39   C     C_3   0.471384 0.875923 0.684830 -0.290963
C40   C     C_3   0.193157 0.281446 0.270883 0.881845
C41   C     C_3   0.212786 0.225079 0.173896 0.590678
C42   C     C_3   0.462301 0.709091 0.228568 0.940960
C43   C     C_3   0.451946 0.738267 0.148569 1.140521
C44   C     C_3   0.965610 0.740853 0.281696 0.352780
C45   C     C_3   0.940172 0.830041 0.257158 0.546610
C46   C     C_2   0.293234 0.476075 0.246600 -0.209172
F1    F     F_    0.814094 0.078767 0.352531 -0.747943
F2    F     F_    0.029855 0.815660 0.186843 -0.660141
F3    F     F_    0.939275 0.462353 0.031226 -0.682765
F4    F     F_    0.339939 0.089687 0.359971 -0.685782
F5    F     F_    0.708721 0.067495 0.627468 -0.675324
F6    F     F_    0.313257 0.673354 0.464292 -0.728515
F7    F     F_    0.633302 0.250937 0.401547 -0.691010
F8    F     F_    0.075043 0.358331 0.278749 -0.727562
F9    F     F_    0.442329 0.164216 0.780451 -0.636273
F10   F     F_    0.066618 0.187638 0.132795 -0.663250
F11   F     F_    0.221218 0.097820 0.695977 -0.765082
F12   F     F_    0.518497 0.612797 0.205225 -0.687610
F13   F     F_    0.602982 0.715159 0.112678 -0.669588
F14   F     F_    0.333000 0.691401 0.086211 -0.702975
F15   F     F_    0.647578 0.392903 0.817420 -0.675367
H1    H     H_    0.300511 0.249680 0.671375 0.068310
H2    H     H_    0.098899 0.272650 0.712734 -0.009139
H3    H     H_    0.925492 0.837413 0.847804 0.144455
H4    H     H_    0.145397 0.800742 0.857425 0.147198
H5    H     H_    0.210125 0.193695 0.820851 -0.061315
H6    H     H_    0.336009 0.721743 0.250358 -0.257292
H7    H     H_    0.895962 0.755112 0.339500 -0.006938
H8    H     H_    0.982505 0.892094 0.313746 -0.019939
H9    H     H_    0.806979 0.846594 0.239321 0.085423
H10   H     H_    0.593771 0.647591 0.891310 0.124176
H11   H     H_    0.267259 0.492539 0.313911 0.123355
H12   H     H_    0.835582 0.093797 0.236578 0.030853
H13   H     H_    0.916743 0.509857 0.684559 0.050737
H14   H     H_    0.239864 0.537324 0.963989 0.135595
H15   H     H_    0.446839 0.930642 0.368059 0.109170
H16   H     H_    0.862565 0.912286 0.614699 0.119075
H17   H     H_    0.885233 0.311393 0.529661 0.061547
H18   H     H_    0.756734 0.255194 0.874378 0.143356
H19   H     H_    0.910464 0.198489 0.796319 0.022398
H20   H     H_    0.630145 0.084457 0.259418 0.076207
H21   H     H_    0.244267 0.272314 0.141596 -0.111609
H22   H     H_    0.895224 0.703958 0.704938 -0.000554
H23   H     H_    0.374142 0.738702 0.635433 0.051576
H24   H     H_    0.114667 0.665066 0.715038 0.040879
H25   H     H_    0.998108 0.723375 0.859007 0.046767
H26   H     H_    0.932788 0.316677 0.877339 0.079470
H27   H     H_    0.417209 0.816814 0.168057 -0.079908
H28   H     H_    0.098847 0.726916 0.300349 -0.101378
H29   H     H_    0.594259 0.340582 0.111286 0.111872
H30   H     H_    0.836330 0.335598 0.739377 -0.620566
H31   H     H_    0.836343 0.255810 0.344470 -0.066575
H32   H     H_    0.578677 0.737593 0.604890 0.098429
H33   H     H_    0.380399 0.907519 0.735157 0.160413
H34   H     H_    0.425501 0.896068 0.626991 0.101677
H35   H     H_    0.591288 0.905850 0.711949 0.159199
H36   H     H_    0.312462 0.307380 0.303359 -0.170193
H37   H     H_    0.313347 0.165497 0.166473 -0.024538
O1    O     O_2   0.428380 0.595300 0.716110 -0.459552
O2    O     O_2   0.679841 0.814044 0.457791 -0.502670
O3    O     O_3   0.572799 0.763898 0.293971 -0.690802
O4    O     O_3   0.649320 0.571650 0.606870 -0.491135
O5    O     O_3   0.067580 0.379340 0.450790 -0.476993
O6    O     O_2   0.850900 0.734750 0.551740 -0.487259
O7    O     O_3   0.053629 0.794630 0.695713 -0.642368
O8    O     O_2   0.834912 0.492126 0.190236 -0.322297
O9    O     O_3   0.907902 0.662992 0.210500 -0.515160
O10   O     O_3   0.202060 0.415880 0.655570 -0.524910
O11   O     O_2   0.352943 0.514598 0.809808 -0.405866
O12   O     O_3   0.142941 0.220929 0.307616 -0.599244
O13   O     O_3   0.561826 0.744552 0.731964 -0.640290
O14   O     O_3   0.284479 0.347211 0.798291 -0.588949
O15   O     O_2   0.338790 0.265210 0.448200 -0.363111
O16   O     O_3   0.612600 0.359140 0.609510 -0.450063
O17   O     O_2   0.507905 0.187993 0.549824 -0.407389
O18   O     O_3   0.644046 0.245544 0.710589 -0.536068
O19   O     O_2   0.761310 0.404660 0.283830 -0.391848
O20   O     O_3   0.540390 0.428270 0.393120 -0.435926
O21   O     O_3   0.987650 0.584040 0.344420 -0.463403
O22   O     O_3   0.621931 0.254911 0.263807 -0.727961
O23   O     O_3   0.122130 0.620580 0.549200 -0.420203
O24   O     O_3   0.577110 0.640790 0.390470 -0.376441
P1    P     P_3+3 0.592580 0.619750 0.703570 1.007877
P2    P     P_3+3 0.156510 0.273300 0.422380 1.129877
P3    P     P_3+3 0.655469 0.242095 0.603916 1.199313
P4    P     P_3+3 0.597130 0.380170 0.296420 1.073596
P5    P     P_3+3 0.540093 0.759720 0.395546 1.036746
P6    P     P_3+3 0.214315 0.447884 0.769547 1.018923
P7    P     P_3+3 0.040574 0.741342 0.581176 0.989238
P8    P     P_3+3 0.975484 0.557529 0.231606 1.213068

loop_
_geom_bond_atom_site_label_1
_geom_bond_atom_site_label_2
_ccdc_geom_bond_type
C32   C35   A    
C1    H5    S    
O2    P5    D    
C18   P5    S    
C6    C46   D    
C34   H4    S    
Ba2   O23   S    
C34   H25   S    
C13   C17   A    
C20   C33   A    
C19   C29   A    
C24   C25   A    
O15   P2    D    
O5    P2    S    
C26   C27   A    
Ba1   P1    S    
C32   C33   A    
C27   C30   A    
C34   H3    S    
C39   H33   S    
O13   P1    S    
C43   F14   S    
C23   H24   S    
C16   H18   S    
Ba1   Ba2   S    
C24   P2    S    
C38   H23   S    
C40   O12   S    
C41   F10   S    
C40   F8    S    
C2    C17   A    
O4    P1    S    
C28   O22   S    
C14   C15   A    
O16   P3    S    
C6    P8    S    
O1    P1    D    
C21   C22   A    
Ba1   O16   S    
C37   H12   S    
C5    P4    S    
C7    C8    S    
O12   P2    S    
O19   P4    D    
C17   P6    S    
C41   H21   S    
O14   P6    S    
O3    P5    S    
C42   O3    S    
C45   F2    S    
C31   F5    S    
O6    P7    D    
C4    C16   S    
O8    P8    D    
C14   H10   S    
C46   H11   S    
Ba1   P2    S    
O7    P7    S    
C25   H17   S    
O24   P5    S    
C3    C5    D    
Ba2   O20   S    
C6    C7    S    
C44   H28   S    
C12   O14   S    
Ba2   O6    S    
Ba1   O20   S    
C4    F15   S    
Ba1   O23   S    
Ba1   O10   S    
C18   C36   A    
O11   P6    D    
C38   O13   S    
C36   F6    S    
C10   C13   S    
Ba2   O4    S    
Ba2   O19   S    
C4    H30   S    
C12   H1    S    
C10   H14   S    
O9    P8    S    
C23   H22   S    
C31   C32   A    
C42   H6    S    
C41   H37   S    
C43   H27   S    
O17   P3    D    
Ba1   O4    S    
C45   H8    S    
C1    C12   S    
C2    C15   A    
C1    F9    S    
C22   H15   S    
C38   C39   S    
C37   F1    S    
C7    C9    S    
C20   C24   A    
C2    H13   S    
C39   H34   S    
C11   C14   A    
C40   C41   S    
C19   C22   A    
O21   P8    S    
Ba1   O1    S    
C42   C43   S    
C23   O7    S    
Ba2   O21   S    
C44   C45   S    
O23   P7    S    
C39   H35   S    
C16   H26   S    
C9    C10   D    
O20   P4    S    
Ba2   O24   S    
C28   F7    S    
Ba2   O5    S    
Ba2   P4    S    
C26   P7    S    
C5    C46   S    
C11   C13   A    
C37   H20   S    
C3    C8    S    
C28   H31   S    
C40   H36   S    
C30   C31   A    
C30   H16   S    
C15   P1    S    
C21   F4    S    
C42   F12   S    
C43   F13   S    
C16   H19   S    
C12   H2    S    
C28   C37   S    
O10   P6    S    
C29   C33   A    
O22   P4    S    
C45   H9    S    
C44   H7    S    
C3    H29   S    
C9    F3    S    
C23   C34   S    
C18   C19   A    
C27   C29   A    
O18   P3    S    
C44   O9    S    
C20   C21   A    
Ba1   O15   S    
C26   C36   A    
C4    O18   S    
C25   C35   A    
Ba1   O5    S    
C35   P3    S    
C38   H32   S    
C1    F11   S    
