data_mof_unit_pretest_1593.cif
_audit_creation_date              2012-10-26T17:29:10-0400
_audit_creation_method            fapswitch 2.2
_symmetry_space_group_name_H-M    P1
_symmetry_Int_Tables_number       1
_space_group_crystal_system       triclinic
_cell_length_a                    28.449594
_cell_length_b                    18.357459
_cell_length_c                    21.766659
_cell_angle_alpha                 90.296336
_cell_angle_beta                  139.905141
_cell_angle_gamma                 89.741024
_cell_volume                      7321.4548729

loop_
_atom_site_label
_atom_site_type_symbol
_atom_type_description
_atom_site_fract_x
_atom_site_fract_y
_atom_site_fract_z
_atom_type_partial_charge
C1    C     C_R   0.860075 0.000018 0.860115 0.581384
C2    C     C_R   0.999953 0.139945 0.499702 0.625241
C3    C     C_2   0.055752 0.864201 0.745510 0.605216
C4    C     C_2   0.640819 0.537585 0.844791 0.635795
C5    C     C_2   0.545368 0.637357 0.358085 0.596822
C6    C     C_2   0.418808 0.617196 0.222707 0.619351
C7    C     C_2   0.556975 0.636070 0.747662 0.599955
C8    C     C_R   0.500036 0.360056 0.500190 0.611450
C9    C     C_R   0.499904 0.639927 0.498767 0.620971
C10   C     C_R   0.999850 0.000238 0.620222 0.633181
C11   C     C_R   0.000067 0.997519 0.379771 0.604974
C12   C     C_R   0.499927 0.501486 0.620264 0.607606
C13   C     C_R   0.500069 0.497537 0.379771 0.603370
C14   C     C_R   0.500030 0.139467 0.500159 0.545658
C15   C     C_R   0.499908 0.860534 0.499726 0.545977
C16   C     C_R   0.000023 0.639468 0.500144 0.541970
C17   C     C_R   0.139924 0.999971 0.139861 0.589204
C18   C     C_R   0.999978 0.360532 0.499847 0.547302
C19   C     C_R   0.639459 0.000011 0.639459 0.546384
C20   C     C_R   0.360545 0.999978 0.360545 0.552469
C21   C     C_R   0.139460 0.500037 0.639455 0.547726
C22   C     C_R   0.860543 0.499939 0.360514 0.550817
C23   C     C_1   0.000077 0.782452 0.500188 0.037831
C24   C     C_1   0.999889 0.217548 0.499489 0.031152
C25   C     C_1   0.500099 0.282455 0.500427 0.051564
C26   C     C_1   0.499705 0.717554 0.498453 0.007288
C27   C     C_1   0.500085 0.217100 0.500445 0.005818
C28   C     C_R   0.360075 0.500029 0.860004 0.568453
C29   C     C_1   0.499743 0.782908 0.498981 -0.020223
C30   C     C_1   0.000066 0.717101 0.500356 -0.008609
C31   C     C_1   0.999918 0.282901 0.499533 -0.007427
C32   C     C_R   0.000230 0.999759 0.880490 0.575591
C33   C     C_R   0.999771 0.000222 0.119596 0.590939
C34   C     C_R   0.499822 0.499727 0.880021 0.583498
C35   C     C_R   0.499777 0.500220 0.119601 0.592924
C36   C     C_3   0.930515 0.040796 0.720129 -0.122792
C37   C     C_3   0.069110 0.957048 0.280359 -0.120157
C38   C     C_3   0.930891 0.957166 0.141909 -0.120249
C39   C     C_R   0.639922 0.499952 0.139430 0.588972
C40   C     C_3   0.068062 0.043851 0.856645 -0.114774
C41   C     C_3   0.528456 0.423440 0.814936 -0.106329
C42   C     C_3   0.569025 0.456887 0.280274 -0.120589
C43   C     C_3   0.430811 0.457309 0.141825 -0.120340
C44   C     C_3   0.419343 0.509187 0.707099 -0.129649
C45   C     C_3   0.929012 0.046605 0.645621 -0.021827
C46   C     C_3   0.078221 0.964428 0.361783 -0.024841
C47   C     C_3   0.932795 0.947100 0.216710 -0.029058
C48   C     C_3   0.075753 0.037867 0.791780 -0.028297
C49   C     C_3   0.518525 0.418684 0.732125 -0.036586
C50   C     C_1   0.717084 0.000036 0.717085 -0.005927
C51   C     C_3   0.578158 0.464272 0.361718 -0.026068
C52   C     C_3   0.432695 0.447248 0.216606 -0.030445
C53   C     C_3   0.418838 0.526744 0.635209 -0.027559
C54   C     C_3   0.002574 0.920774 0.788612 -0.220596
C55   C     C_3   0.001555 0.078532 0.216605 -0.203610
C56   C     C_3   0.547428 0.562539 0.835550 -0.229257
C57   C     C_3   0.501736 0.578525 0.216777 -0.203816
C58   C     C_3   0.000383 0.000024 0.812205 -0.116500
C59   C     C_3   0.000096 0.999685 0.188482 -0.108120
C60   C     C_3   0.499472 0.499155 0.811270 -0.106903
C61   C     C_1   0.282932 0.999932 0.282921 -0.017787
C62   C     C_3   0.500106 0.499679 0.188489 -0.108682
C63   C     C_3   0.999749 0.000019 0.689474 -0.121256
C64   C     C_3   0.000393 0.997488 0.310759 -0.134538
C65   C     C_3   0.499728 0.501087 0.689373 -0.127152
C66   C     C_3   0.500402 0.497499 0.310765 -0.135034
C67   C     C_3   0.996374 0.916463 0.710534 -0.008510
C68   C     C_3   0.991223 0.081039 0.277653 -0.010499
C69   C     C_3   0.560700 0.558256 0.777701 -0.009731
C70   C     C_3   0.491420 0.581065 0.277838 -0.009824
C71   C     C_1   0.782473 0.000043 0.782500 0.008520
C72   C     C_1   0.217086 0.500086 0.717052 -0.001785
C73   C     C_1   0.217545 0.999918 0.217495 -0.019962
C74   C     C_1   0.282476 0.500087 0.782410 0.000659
C75   C     C_1   0.717536 0.499838 0.217019 -0.017124
C76   C     C_2   0.860958 0.013461 0.682320 0.594943
C77   C     C_2   0.139254 0.969489 0.313877 0.612966
C78   C     C_2   0.859026 0.982823 0.041689 0.616558
C79   C     C_2   0.138741 0.032078 0.963427 0.616393
C80   C     C_2   0.602856 0.400748 0.915755 0.642247
C81   C     C_2   0.639196 0.469144 0.313807 0.613899
C82   C     C_2   0.358998 0.483118 0.041659 0.617789
C83   C     C_1   0.782924 0.499848 0.282700 -0.018948
C84   C     C_2   0.365847 0.554083 0.692466 0.603753
C85   C     C_2   0.935933 0.126747 0.631745 0.571571
C86   C     C_2   0.099173 0.888211 0.408036 0.608627
C87   C     C_2   0.946749 0.866084 0.246751 0.579211
C88   C     C_2   0.090950 0.115551 0.782403 0.612643
C89   C     C_2   0.455801 0.366704 0.651684 0.591359
C90   C     C_2   0.598946 0.388026 0.407834 0.607987
C91   C     C_2   0.446482 0.366204 0.246488 0.581573
C92   C     C_2   0.349530 0.489340 0.537988 0.630814
C93   C     C_2   0.849827 0.028576 0.544802 0.649500
C94   C     C_R   0.000026 0.860052 0.499827 0.635189
C95   C     C_2   0.145214 0.012483 0.445414 0.628385
C96   C     C_2   0.856097 0.962250 0.169130 0.646992
C97   C     C_2   0.146036 0.995664 0.843708 0.626151
C98   C     C_2   0.583952 0.377617 0.768181 0.612335
C99   C     C_2   0.645257 0.512191 0.445427 0.628160
C100  C     C_2   0.356018 0.462549 0.169033 0.647409
C101  C     C_2   0.406750 0.608555 0.608883 0.604265
C102  C     C_2   0.928349 0.874671 0.621741 0.636570
C103  C     C_2   0.045050 0.137419 0.357822 0.596468
C104  C     C_2   0.918525 0.117020 0.222418 0.619834
Cu1   Cu    Cu3+1 0.000000 0.927450 0.000000 1.076370
Cu2   Cu    Cu3+1 0.500040 0.000000 0.562520 1.081060
Cu3   Cu    Cu3+1 0.999960 0.500000 0.437480 1.065858
Cu4   Cu    Cu3+1 0.000040 0.500000 0.562520 1.071403
Cu5   Cu    Cu3+1 0.000000 0.072550 0.000000 1.100830
Cu6   Cu    Cu3+1 0.500000 0.427450 0.000000 1.081030
Cu7   Cu    Cu3+1 0.500000 0.572550 0.000000 1.088824
Cu8   Cu    Cu3+1 0.927450 1.000000 0.427440 1.184076
Cu9   Cu    Cu3+1 0.072550 0.000000 0.572560 1.207556
Cu10  Cu    Cu3+1 0.427450 0.500000 0.427440 1.194435
Cu11  Cu    Cu3+1 0.572550 0.500000 0.572560 1.223263
Cu12  Cu    Cu3+1 0.499960 1.000000 0.437480 1.065954
H1    H     H_    0.935158 0.096473 0.744193 0.189971
H2    H     H_    0.054827 0.102407 0.256677 0.227921
H3    H     H_    0.962427 0.114111 0.153264 0.237153
H4    H     H_    0.054674 0.896769 0.856776 0.227273
H5    H     H_    0.599166 0.567361 0.913493 0.205168
H6    H     H_    0.555060 0.602287 0.256891 0.227285
H7    H     H_    0.462677 0.614185 0.153512 0.236769
H8    H     H_    0.517963 0.613166 0.819049 0.225554
H9    H     H_    0.790821 0.931378 0.628793 0.352708
H10   H     H_    0.202084 0.037981 0.327499 0.344296
H11   H     H_    0.801990 0.060553 0.940280 0.349647
H12   H     H_    0.055754 0.899597 0.255330 0.179360
H13   H     H_    0.203161 0.964139 0.076246 0.345210
H14   H     H_    0.690730 0.425629 0.055773 0.351607
H15   H     H_    0.702097 0.537388 0.327323 0.343483
H16   H     H_    0.302133 0.560956 0.940402 0.349702
H17   H     H_    0.346271 0.641929 0.726629 0.350932
H18   H     H_    0.954438 0.232638 0.671022 0.370045
H19   H     H_    0.135105 0.785748 0.427059 0.361750
H20   H     H_    0.960456 0.761452 0.233183 0.365049
H21   H     H_    0.090822 0.185660 0.711066 0.344859
H22   H     H_    0.381945 0.290492 0.602720 0.378291
H23   H     H_    0.935614 0.903227 0.124129 0.174053
H24   H     H_    0.634590 0.285452 0.426605 0.366203
H25   H     H_    0.459944 0.261535 0.232687 0.368801
H26   H     H_    0.266894 0.492421 0.393487 0.344542
H27   H     H_    0.777439 0.968007 0.424361 0.347367
H28   H     H_    0.231650 0.030305 0.587864 0.350545
H29   H     H_    0.776499 0.930131 0.148203 0.346423
H30   H     H_    0.232621 0.986572 0.872929 0.346363
H31   H     H_    0.633971 0.280173 0.805690 0.355422
H32   H     H_    0.731722 0.529879 0.587904 0.350343
H33   H     H_    0.276293 0.430534 0.147899 0.347550
H34   H     H_    0.054314 0.101186 0.855171 0.168352
H35   H     H_    0.394807 0.686089 0.531873 0.350697
H36   H     H_    0.874470 0.827126 0.497124 0.351793
H37   H     H_    0.096228 0.233913 0.397316 0.364204
H38   H     H_    0.826674 0.169474 0.104192 0.374959
H39   H     H_    0.117223 0.828770 0.735844 0.347202
H40   H     H_    0.726352 0.540254 0.871435 0.352770
H41   H     H_    0.596533 0.733859 0.397582 0.362279
H42   H     H_    0.327067 0.669854 0.104615 0.374348
H43   H     H_    0.557178 0.700415 0.673413 0.336768
H44   H     H_    0.492926 0.381979 0.800782 0.179621
H45   H     H_    0.555538 0.399463 0.255130 0.179638
H46   H     H_    0.435418 0.403359 0.123931 0.174732
H47   H     H_    0.396654 0.453783 0.691109 0.167785
H48   H     H_    0.960986 0.886841 0.770137 0.215950
O1    O     O_R   0.894190 0.938730 0.894180 -0.505881
O2    O     O_R   0.000020 0.061270 0.091170 -0.476180
O3    O     O_R   0.062002 0.199603 0.340560 -0.661333
O4    O     O_2   0.902713 0.125560 0.260811 -0.471836
O5    O     O_R   0.871651 0.145542 0.130880 -0.631173
O6    O     O_2   0.077453 0.813892 0.799191 -0.469903
O7    O     O_R   0.079980 0.867798 0.709047 -0.660771
O8    O     O_2   0.678854 0.508944 0.921915 -0.473836
O9    O     O_R   0.673234 0.555507 0.820918 -0.604427
O10   O     O_2   0.569263 0.632242 0.434141 -0.489849
O11   O     O_R   0.562197 0.699618 0.340760 -0.663270
O12   O     O_2   0.403022 0.625742 0.261130 -0.473591
O13   O     O_R   0.000020 0.938730 0.091170 -0.525647
O14   O     O_R   0.371992 0.645836 0.131238 -0.631060
O15   O     O_2   0.560947 0.689548 0.785381 -0.474232
O16   O     O_R   0.555601 0.646889 0.682952 -0.644768
O17   O     O_R   0.999980 0.061270 0.908830 -0.514014
O18   O     O_R   0.499980 0.438730 0.908830 -0.512614
O19   O     O_R   0.500020 0.561270 0.091170 -0.475121
O20   O     O_R   0.500020 0.438730 0.091170 -0.523012
O21   O     O_R   0.499980 0.561270 0.908830 -0.471901
O22   O     O_R   0.938700 0.894210 0.438700 -0.476669
O23   O     O_R   0.061300 0.105790 0.561300 -0.471345
O24   O     O_R   0.061300 0.894210 0.561300 -0.474546
O25   O     O_R   0.105810 0.061270 0.105820 -0.484999
O26   O     O_R   0.938700 0.105790 0.438700 -0.471065
O27   O     O_R   0.438700 0.394210 0.438700 -0.476011
O28   O     O_R   0.561300 0.605790 0.561300 -0.462440
O29   O     O_R   0.561300 0.394210 0.561300 -0.482917
O30   O     O_R   0.438700 0.605790 0.438700 -0.468120
O31   O     O_R   0.938740 0.000000 0.529880 -0.445848
O32   O     O_R   0.061260 0.000000 0.470120 -0.431824
O33   O     O_R   0.438740 0.500000 0.529880 -0.448620
O34   O     O_R   0.561260 0.500000 0.470120 -0.432460
O35   O     O_R   0.061220 0.000000 0.652370 -0.430752
O36   O     O_R   0.105810 0.938730 0.105820 -0.483797
O37   O     O_R   0.938780 0.000000 0.347630 -0.469570
O38   O     O_R   0.561220 0.500000 0.652370 -0.428899
O39   O     O_R   0.438780 0.500000 0.347630 -0.469719
O40   O     O_R   0.499910 0.105770 0.447130 -0.493194
O41   O     O_R   0.500090 0.894230 0.552870 -0.496147
O42   O     O_R   0.500090 0.105770 0.552870 -0.495114
O43   O     O_R   0.499910 0.894230 0.447130 -0.496142
O44   O     O_R   0.999910 0.605770 0.447130 -0.496341
O45   O     O_R   0.000090 0.394230 0.552870 -0.495656
O46   O     O_R   0.000090 0.605770 0.552870 -0.497161
O47   O     O_R   0.894190 0.061270 0.894180 -0.481896
O48   O     O_R   0.999910 0.394230 0.447130 -0.495045
O49   O     O_R   0.605760 0.000000 0.553010 -0.496034
O50   O     O_R   0.394240 0.000000 0.446990 -0.494187
O51   O     O_R   0.105760 0.500000 0.553010 -0.488192
O52   O     O_R   0.894240 0.500000 0.446990 -0.493966
O53   O     O_R   0.605780 0.000000 0.658540 -0.493762
O54   O     O_R   0.394220 0.000000 0.341460 -0.494094
O55   O     O_R   0.105780 0.500000 0.658540 -0.495637
O56   O     O_R   0.894220 0.500000 0.341460 -0.496614
O57   O     O_2   0.825666 0.055368 0.679352 -0.479171
O58   O     O_R   0.394190 0.438730 0.894180 -0.499695
O59   O     O_R   0.837201 0.941807 0.651395 -0.644332
O60   O     O_2   0.185747 0.921679 0.358632 -0.443582
O61   O     O_R   0.151715 0.035421 0.296202 -0.668121
O62   O     O_2   0.806727 0.941387 0.988821 -0.460189
O63   O     O_R   0.852481 0.051428 0.008160 -0.658209
O64   O     O_2   0.184098 0.080851 0.011139 -0.441762
O65   O     O_R   0.152841 0.965844 0.006698 -0.666555
O66   O     O_2   0.623155 0.337566 0.930844 -0.437762
O67   O     O_R   0.644362 0.448718 0.993130 -0.671720
O68   O     O_2   0.685628 0.421271 0.358605 -0.440714
O69   O     O_R   0.605810 0.561270 0.105820 -0.492408
O70   O     O_R   0.651747 0.534975 0.296093 -0.668856
O71   O     O_2   0.306611 0.441793 0.988707 -0.457496
O72   O     O_R   0.352599 0.551733 0.008271 -0.657934
O73   O     O_2   0.302586 0.533546 0.633943 -0.482586
O74   O     O_R   0.387434 0.618277 0.743759 -0.617051
O75   O     O_2   0.925833 0.141956 0.567582 -0.471802
O76   O     O_R   0.951783 0.183284 0.688940 -0.685728
O77   O     O_2   0.099800 0.876681 0.463921 -0.444717
O78   O     O_R   0.122201 0.832193 0.391587 -0.649955
O79   O     O_2   0.952846 0.848291 0.306756 -0.461143
O80   O     O_R   0.605810 0.438730 0.105820 -0.484833
O81   O     O_R   0.951134 0.811536 0.206057 -0.688497
O82   O     O_2   0.121704 0.160722 0.845661 -0.441862
O83   O     O_R   0.076532 0.133757 0.706962 -0.645815
O84   O     O_2   0.439334 0.359088 0.581056 -0.498747
O85   O     O_R   0.420351 0.323512 0.659913 -0.658109
O86   O     O_2   0.599582 0.376541 0.463736 -0.440243
O87   O     O_R   0.621796 0.331915 0.391226 -0.646961
O88   O     O_2   0.452549 0.348408 0.306466 -0.456864
O89   O     O_R   0.450734 0.311638 0.205667 -0.683002
O90   O     O_2   0.322800 0.434968 0.534439 -0.478212
O91   O     O_R   0.394190 0.561270 0.894180 -0.497011
O92   O     O_R   0.311743 0.521086 0.451072 -0.610147
O93   O     O_2   0.800158 0.068613 0.512358 -0.450664
O94   O     O_R   0.831617 0.970900 0.487713 -0.635093
O95   O     O_2   0.162483 0.064591 0.431097 -0.477949
O96   O     O_R   0.189491 0.995154 0.540091 -0.617392
O97   O     O_2   0.818706 0.014043 0.116291 -0.452826
O98   O     O_R   0.826587 0.914603 0.183303 -0.621165
O99   O     O_2   0.168495 0.944687 0.896777 -0.468591
O100  O     O_R   0.187740 0.017944 0.834839 -0.623732
O101  O     O_2   0.628961 0.407032 0.780534 -0.471710
O102  O     O_R   0.999980 0.938730 0.908830 -0.494178
O103  O     O_R   0.590228 0.302283 0.783690 -0.618112
O104  O     O_2   0.662647 0.564229 0.431194 -0.477189
O105  O     O_R   0.689484 0.494817 0.540074 -0.616559
O106  O     O_2   0.318765 0.514453 0.116365 -0.454449
O107  O     O_R   0.326355 0.414906 0.182985 -0.615106
O108  O     O_2   0.402962 0.654673 0.645554 -0.446519
O109  O     O_R   0.401722 0.631500 0.542721 -0.621453
O110  O     O_2   0.884046 0.850920 0.614194 -0.443770
O111  O     O_R   0.919741 0.857290 0.550813 -0.650588
O112  O     O_2   0.068710 0.132450 0.433733 -0.489603

loop_
_geom_bond_atom_site_label_1
_geom_bond_atom_site_label_2
_ccdc_geom_bond_type
C78   O62   D    
H11   O63   S    
C103  O3    S    
C96   O97   D    
C15   C29   S    
C82   O72   S    
C1    O47   A    
C2    O26   A    
C5    O10   D    
C18   O48   A    
C33   O2    A    
C28   O91   A    
C32   C58   S    
H43   O16   S    
H22   O85   S    
C28   C74   S    
C10   O35   A    
C41   C80   S    
Cu4   O45   S    
C42   H45   S    
C57   C62   S    
C100  O106  D    
C49   C89   S    
C68   C103  S    
C95   O95   D    
C48   C97   S    
C90   O86   D    
C1    C71   S    
C49   C65   S    
C56   H8    S    
H19   O78   S    
C94   O24   A    
C103  O112  D    
C54   H4    S    
C51   C90   S    
Cu8   O22   S    
Cu10  O33   S    
H21   O83   S    
C43   C52   S    
C43   C62   S    
C104  O4    D    
C8    O27   A    
C35   O19   A    
Cu9   O23   S    
Cu11  O38   S    
H13   O65   S    
H26   O92   S    
C17   O36   A    
C40   C48   S    
C11   O37   A    
C20   C61   S    
Cu6   Cu7   S    
C79   O65   S    
Cu1   Cu5   S    
C36   C76   S    
C97   O100  S    
Cu7   O69   S    
C49   C98   S    
C2    O23   A    
Cu4   O55   S    
C44   C53   S    
C75   C83   T    
Cu1   O36   S    
C54   H48   S    
C77   O61   S    
C10   C63   S    
Cu8   O26   S    
Cu5   O25   S    
C81   O68   D    
C14   O40   A    
Cu7   O19   S    
C7    O16   S    
Cu6   O80   S    
Cu3   Cu4   S    
C48   C88   S    
H30   O100  S    
C19   O53   A    
C44   H47   S    
C12   O38   A    
C102  O111  S    
C9    O28   A    
C53   C65   S    
C42   C62   S    
C86   O78   S    
C42   C51   S    
C13   C66   S    
C37   H12   S    
C38   C59   S    
C92   O90   D    
C57   H6    S    
Cu6   O20   S    
C33   C59   S    
C4    O8    D    
C82   O71   D    
H37   O3    S    
C34   C60   S    
C8    C25   S    
C5    O11   S    
C101  O109  S    
H42   O14   S    
H24   O87   S    
H18   O76   S    
Cu8   O37   S    
Cu2   O41   S    
C42   C81   S    
C41   C49   S    
C4    C69   S    
Cu12  O40   S    
C9    C26   S    
C87   O81   S    
C91   O88   D    
H9    O59   S    
C76   O59   S    
Cu7   O91   S    
C95   O96   S    
Cu2   O50   S    
C101  O108  D    
C63   C67   S    
H40   O9    S    
Cu7   O21   S    
C40   C58   S    
C13   O34   A    
C46   C95   S    
C21   C72   S    
C33   O13   A    
C23   C30   T    
C68   C104  S    
C32   O17   A    
C36   C45   S    
C18   O45   A    
C11   O32   A    
H33   O107  S    
C72   C74   T    
C11   C64   S    
C47   C96   S    
C53   C101  S    
C47   C64   S    
C17   C73   S    
C55   C68   S    
C9    O30   A    
C48   C63   S    
C55   H3    S    
C54   C67   S    
C91   O89   S    
C84   O73   D    
Cu11  O34   S    
C35   O20   A    
Cu9   O24   S    
C37   C77   S    
C99   O105  S    
C56   C60   S    
H38   O5    S    
C46   C64   S    
C85   O75   D    
C51   C66   S    
C20   O50   A    
C34   O21   A    
C45   C85   S    
C50   C71   T    
Cu8   O31   S    
C7    C69   S    
C5    C70   S    
H39   O7    S    
C57   H7    S    
C41   H44   S    
H35   O109  S    
C77   O60   D    
C87   O79   D    
C51   C99   S    
C1    O1    A    
C98   O103  S    
C12   O33   A    
C12   C65   S    
C53   C92   S    
C21   O51   A    
Cu9   O35   S    
C40   C79   S    
C40   H34   S    
C8    O29   A    
Cu4   O52   S    
C102  O110  D    
C32   O102  A    
C36   H1    S    
H16   O72   S    
Cu3   O44   S    
C37   C59   S    
C45   C63   S    
C89   O85   S    
H41   O11   S    
C93   O93   D    
Cu11  O28   S    
C92   O92   S    
H31   O103  S    
C80   O66   D    
C45   C93   S    
C39   C75   S    
C4    O9    S    
C14   O42   A    
C2    C24   S    
C14   C27   S    
Cu9   O32   S    
H10   O61   S    
H17   O74   S    
C80   O67   S    
Cu12  O54   S    
Cu6   O58   S    
C64   C68   S    
C79   O64   D    
C52   C66   S    
C55   C59   S    
C39   O69   A    
C39   O80   A    
C54   C58   S    
C38   H23   S    
Cu5   O17   S    
C78   O63   S    
C6    C70   S    
C22   O56   A    
C96   O98   S    
Cu10  O27   S    
Cu10  O30   S    
C81   O70   S    
C20   O54   A    
H32   O105  S    
C38   C47   S    
C84   O74   S    
C94   O22   A    
C41   C60   S    
Cu1   O13   S    
Cu12  O49   S    
C16   O44   A    
H36   O111  S    
C22   O52   A    
Cu2   O42   S    
Cu4   O46   S    
C99   O104  D    
C23   C94   S    
C3    O6    D    
Cu10  Cu11  S    
Cu3   O48   S    
C76   O57   D    
C25   C27   T    
C38   C78   S    
C90   O87   S    
C36   C58   S    
C89   O84   D    
C44   C84   S    
C7    O15   D    
C85   O76   S    
C61   C73   T    
C22   C83   S    
C16   O46   A    
Cu1   O102  S    
C24   C31   T    
H25   O89   S    
H27   O94   S    
C10   O31   A    
C56   H5    S    
C88   O83   S    
C19   C50   S    
C3    O7    S    
C66   C70   S    
C3    C67   S    
H14   O67   S    
C44   C60   S    
C86   O77   D    
C65   C69   S    
C15   O41   A    
H15   O70   S    
C6    O12   D    
Cu1   O1    S    
H20   O81   S    
C34   O18   A    
C35   C62   S    
Cu8   Cu9   S    
Cu3   O56   S    
Cu11  O29   S    
H28   O96   S    
Cu12  O43   S    
Cu5   O2    S    
C97   O99   D    
C57   C70   S    
C88   O82   D    
C93   O94   S    
C43   H46   S    
C13   O39   A    
Cu2   O53   S    
Cu3   O51   S    
C17   O25   A    
Cu6   O18   S    
C26   C29   T    
C28   O58   A    
C56   C69   S    
C21   O55   A    
Cu2   Cu12  S    
H29   O98   S    
C52   C100  S    
Cu10  O39   S    
C52   C91   S    
C18   C31   S    
C98   O101  D    
C19   O49   A    
C37   C46   S    
Cu5   O47   S    
C16   C30   S    
C55   H2    S    
C15   O43   A    
C43   C82   S    
C67   C102  S    
C47   C87   S    
C104  O5    S    
C46   C86   S    
C100  O107  S    
C6    O14   S    
