data_mof_unit_pretest_1270.cif
_audit_creation_date              2013-03-05T15:56:44-0500
_audit_creation_method            fapswitch 2.2
_symmetry_space_group_name_H-M    P1
_symmetry_Int_Tables_number       1
_space_group_crystal_system       triclinic
_cell_length_a                    20.311094
_cell_length_b                    22.275612
_cell_length_c                    13.950274
_cell_angle_alpha                 90.890665
_cell_angle_beta                  90.501888
_cell_angle_gamma                 89.806399
_cell_volume                      6310.65265656

loop_
_atom_site_label
_atom_site_type_symbol
_atom_site_description
_atom_site_fract_x
_atom_site_fract_y
_atom_site_fract_z
_atom_type_partial_charge
O1    O     O_R   0.064880 0.435140 0.582280 -0.593754
O2    O     O_R   0.935120 0.564860 0.417720 -0.552237
O3    O     O_R   0.935120 0.564860 0.582280 -0.578928
O4    O     O_R   0.064880 0.435140 0.417720 -0.571683
O5    O     O_R   0.935120 0.435140 0.417720 -0.573165
O6    O     O_R   0.064880 0.564860 0.582280 -0.534477
O7    O     O_R   0.064880 0.564860 0.417720 -0.561443
O8    O     O_R   0.935120 0.435140 0.582280 -0.564249
O9    O     O_R   0.564880 0.935140 0.582280 -0.592964
O10   O     O_R   0.435120 0.064860 0.417720 -0.590946
O11   O     O_R   0.435120 0.064860 0.582280 -0.566560
O12   O     O_R   0.564880 0.935140 0.417720 -0.558087
O13   O     O_R   0.435120 0.935140 0.417720 -0.545473
O14   O     O_R   0.564880 0.064860 0.582280 -0.555084
O15   O     O_R   0.564880 0.064860 0.417720 -0.565454
O16   O     O_R   0.435120 0.935140 0.582280 -0.562851
C1    C     C_R   0.087040 0.416121 0.499759 0.848817
C2    C     C_R   0.911777 0.583150 0.500303 0.844142
C3    C     C_R   0.915087 0.413434 0.499458 0.888508
C4    C     C_R   0.083697 0.587034 0.501081 0.851468
C5    C     C_R   0.588268 0.917551 0.499832 0.862672
C6    C     C_R   0.413063 0.083872 0.500205 0.857468
C7    C     C_R   0.416995 0.912423 0.499189 0.890664
C8    C     C_R   0.586384 0.085442 0.500825 0.881539
Cu1   Cu    Cu3+1 0.000000 0.500000 0.597420 1.053060
Cu2   Cu    Cu3+1 0.000000 0.500000 0.402580 1.044877
Cu3   Cu    Cu3+1 0.500000 0.000000 0.597420 1.050159
Cu4   Cu    Cu3+1 0.500000 0.000000 0.402580 1.055492
C9    C     C_R   0.174213 0.640711 0.426715 -0.175760
C10   C     C_R   0.872843 0.320890 0.575584 -0.189323
C11   C     C_R   0.884091 0.689096 0.488006 -0.168510
C12   C     C_R   0.114620 0.310131 0.495091 -0.160547
C13   C     C_R   0.664322 0.149671 0.413471 -0.142612
C14   C     C_R   0.338110 0.849140 0.580962 -0.129160
C15   C     C_R   0.385139 0.189483 0.501243 -0.167389
C16   C     C_R   0.615392 0.812373 0.503148 -0.131737
C17   C     C_R   0.132335 0.635720 0.504268 -0.156406
C18   C     C_R   0.870810 0.360529 0.498480 -0.108939
C19   C     C_R   0.862081 0.631013 0.501959 -0.080065
C20   C     C_R   0.136725 0.368956 0.498432 -0.118470
C21   C     C_R   0.640721 0.129975 0.501642 -0.143152
C22   C     C_R   0.374748 0.858776 0.498938 -0.144514
C23   C     C_R   0.363152 0.130705 0.501231 -0.127787
C24   C     C_R   0.637838 0.870778 0.498789 -0.120278
C25   C     C_R   0.139402 0.674464 0.584646 -0.034692
C26   C     C_R   0.826254 0.348715 0.422203 -0.040777
C27   C     C_R   0.794331 0.619792 0.515294 -0.093533
C28   C     C_R   0.204486 0.381691 0.503213 -0.109455
C29   C     C_R   0.672018 0.149695 0.587695 -0.050729
C30   C     C_R   0.371789 0.817123 0.421444 -0.061690
C31   C     C_R   0.295422 0.117560 0.497735 -0.089824
C32   C     C_R   0.705720 0.883187 0.498797 -0.113503
C33   C     C_R   0.194051 0.714353 0.590177 -0.015009
C34   C     C_R   0.800512 0.290464 0.411191 -0.023053
C35   C     C_R   0.749643 0.668684 0.524359 -0.000087
C36   C     C_R   0.250360 0.333831 0.491197 -0.012275
C37   C     C_R   0.732376 0.181608 0.581917 -0.035609
C38   C     C_R   0.328332 0.767023 0.426320 -0.005532
C39   C     C_R   0.249300 0.165487 0.507315 -0.003481
C40   C     C_R   0.750575 0.834823 0.485461 -0.011755
C41   C     C_R   0.235743 0.719157 0.508634 0.072503
C42   C     C_R   0.793480 0.256326 0.494336 0.058211
C43   C     C_R   0.772476 0.727294 0.503558 0.068328
C44   C     C_R   0.227269 0.273776 0.498128 0.063427
C45   C     C_R   0.747176 0.209774 0.494764 0.072434
C46   C     C_R   0.286384 0.762302 0.507492 0.067727
C47   C     C_R   0.272385 0.225593 0.500162 0.059133
C48   C     C_R   0.727699 0.775598 0.501043 0.061947
C49   C     C_R   0.225725 0.681847 0.426957 0.028307
C50   C     C_R   0.829515 0.271647 0.578362 0.033967
C51   C     C_R   0.840033 0.737567 0.485082 0.045778
C52   C     C_R   0.158850 0.262019 0.502142 0.047678
C53   C     C_R   0.713615 0.193312 0.409085 0.026536
C54   C     C_R   0.294858 0.801112 0.587523 0.028115
C55   C     C_R   0.340803 0.237476 0.495525 0.046072
C56   C     C_R   0.659640 0.764853 0.513742 0.039146
C57   C     C_R   0.209366 0.748704 0.674509 -0.098486
C58   C     C_R   0.776234 0.268244 0.322060 -0.079859
C59   C     C_R   0.682617 0.660731 0.551917 -0.068841
C60   C     C_R   0.318248 0.344082 0.472734 -0.098031
C61   C     C_R   0.777062 0.188438 0.660234 -0.134981
C62   C     C_R   0.324053 0.722231 0.352449 -0.094083
C63   C     C_R   0.181210 0.155223 0.524107 -0.075891
C64   C     C_R   0.817049 0.843799 0.457623 -0.093479
C65   C     C_R   0.823905 0.235478 0.660301 -0.099918
C66   C     C_R   0.269709 0.683245 0.349145 -0.100996
C67   C     C_R   0.135729 0.202907 0.514888 -0.086529
C68   C     C_R   0.861990 0.795427 0.460173 -0.077096
C69   C     C_R   0.259378 0.792236 0.672680 -0.099314
C70   C     C_R   0.731724 0.219487 0.321033 -0.098964
C71   C     C_R   0.636951 0.707591 0.538924 -0.085802
C72   C     C_R   0.363725 0.296437 0.480690 -0.080188
H1    H     H_    0.167143 0.610641 0.366261 0.223681
H2    H     H_    0.906235 0.330381 0.634681 0.190085
H3    H     H_    0.936235 0.695459 0.476299 0.158144
H4    H     H_    0.061948 0.302738 0.491750 0.146127
H5    H     H_    0.641365 0.132992 0.348317 0.211627
H6    H     H_    0.341350 0.881574 0.639166 0.217608
H7    H     H_    0.437821 0.196774 0.500716 0.164266
H8    H     H_    0.562661 0.805129 0.504374 0.164438
C73   C     C_R   0.058560 0.495819 0.794501 0.153932
C74   C     C_R   0.943479 0.511509 0.204065 0.120060
C75   C     C_R   0.942497 0.506836 0.794264 0.105984
C76   C     C_R   0.058599 0.493066 0.206640 0.096421
C77   C     C_R   0.558059 0.994195 0.795228 0.129416
C78   C     C_R   0.441792 0.003645 0.204813 0.117155
C79   C     C_R   0.441943 0.006388 0.793957 0.098784
C80   C     C_R   0.558072 0.995015 0.206166 0.099496
N1    N     N_R   0.000000 0.500000 0.743810 -0.278582
N2    N     N_R   0.000000 0.500000 0.256190 -0.280349
N3    N     N_R   0.500000 0.000000 0.743810 -0.279494
N4    N     N_R   0.500000 0.000000 0.256190 -0.275860
C81   C     C_R   0.941603 0.508489 0.897088 -0.127334
C82   C     C_R   0.062305 0.499402 0.103752 -0.123407
C83   C     C_R   0.061251 0.502996 0.896963 -0.116417
C84   C     C_R   0.944331 0.517942 0.102223 -0.130882
C85   C     C_R   0.439746 0.999561 0.896322 -0.126331
C86   C     C_R   0.559717 0.001935 0.104101 -0.132153
C87   C     C_R   0.559959 0.000908 0.897933 -0.126370
C88   C     C_R   0.440376 0.996581 0.102377 -0.132512
C89   C     C_R   0.002085 0.506656 0.948449 0.021599
C90   C     C_R   0.003065 0.507953 0.051607 0.025114
C91   C     C_R   0.499896 0.999874 0.948581 0.022112
C92   C     C_R   0.499995 0.999608 0.051551 0.025925
C93   C     C_R   0.882817 0.515901 0.951091 0.238998
C94   C     C_R   0.122577 0.500275 0.050466 0.200501
C95   C     C_R   0.121290 0.507566 0.949859 0.233353
C96   C     C_R   0.886627 0.530977 0.048349 0.238563
C97   C     C_R   0.380083 0.990996 0.948428 0.210561
C98   C     C_R   0.618897 0.011918 0.053146 0.215349
C99   C     C_R   0.619448 0.009910 0.951875 0.256751
C100  C     C_R   0.381381 0.986114 0.049325 0.232777
C101  C     C_2   0.084093 0.679172 0.653323 0.854735
O17   O     O_2   0.080920 0.645004 0.720941 -0.527767
O18   O     O_R   0.035834 0.723112 0.640213 -0.710617
H9    H     H_    0.000350 0.721857 0.690795 0.370896
C102  C     C_2   0.787906 0.399062 0.380529 0.917942
O19   O     O_2   0.803212 0.450377 0.400212 -0.589009
O20   O     O_R   0.730580 0.388664 0.326458 -0.725705
H10   H     H_    0.708782 0.427107 0.304299 0.369227
C103  C     C_2   0.768725 0.557983 0.505365 0.869806
O21   O     O_2   0.792115 0.517750 0.553094 -0.538047
O22   O     O_R   0.715466 0.546542 0.443444 -0.715726
H11   H     H_    0.697731 0.504290 0.449086 0.370900
C104  C     C_2   0.226429 0.442753 0.533856 0.876621
O23   O     O_2   0.267499 0.448311 0.598040 -0.527694
O24   O     O_R   0.200691 0.493625 0.489949 -0.708517
H12   H     H_    0.221060 0.532021 0.516227 0.355693
C105  C     C_2   0.632073 0.153639 0.676668 0.912040
O25   O     O_2   0.652358 0.133945 0.752491 -0.532445
O26   O     O_R   0.569376 0.179684 0.672076 -0.734359
H13   H     H_    0.545880 0.179259 0.735890 0.359754
C106  C     C_2   0.410090 0.829303 0.333866 0.887950
O27   O     O_2   0.470254 0.826599 0.336246 -0.569921
O28   O     O_R   0.377154 0.844580 0.249302 -0.681210
H14   H     H_    0.408524 0.852433 0.194798 0.354926
C107  C     C_2   0.273796 0.055741 0.470149 0.865702
O29   O     O_2   0.298112 0.011936 0.508619 -0.540090
O30   O     O_R   0.225711 0.047938 0.398698 -0.716300
H15   H     H_    0.215133 0.004093 0.385755 0.381881
C108  C     C_2   0.729531 0.943687 0.529016 0.885837
O31   O     O_2   0.773097 0.948093 0.589827 -0.529472
O32   O     O_R   0.702919 0.995286 0.488694 -0.707896
H16   H     H_    0.725870 0.032984 0.512777 0.364009
C109  C     C_2   0.180672 0.734429 0.768786 0.902901
O33   O     O_2   0.138423 0.767101 0.803738 -0.488378
O34   O     O_R   0.202692 0.683770 0.817501 -0.673939
H17   H     H_    0.179881 0.678848 0.881241 0.373094
C110  C     C_2   0.800300 0.294972 0.231233 0.966490
O35   O     O_2   0.762896 0.302158 0.163153 -0.491294
O36   O     O_R   0.865918 0.313266 0.225059 -0.729313
H18   H     H_    0.876452 0.331293 0.160711 0.367611
C111  C     C_2   0.661817 0.608201 0.609061 0.878160
O37   O     O_2   0.616073 0.576540 0.581762 -0.495291
O38   O     O_R   0.694409 0.595711 0.695007 -0.735704
H19   H     H_    0.676349 0.558886 0.727381 0.380267
C112  C     C_2   0.341348 0.402471 0.434892 0.921867
O39   O     O_2   0.313372 0.424543 0.365814 -0.525935
O40   O     O_R   0.394755 0.432020 0.478194 -0.678031
H20   H     H_    0.405445 0.471250 0.445990 0.374054
C113  C     C_2   0.784659 0.139001 0.729405 0.998984
O41   O     O_2   0.790375 0.149627 0.815349 -0.475039
O42   O     O_R   0.786531 0.079820 0.694636 -0.694755
H21   H     H_    0.797711 0.049875 0.746189 0.393828
C114  C     C_2   0.378723 0.711003 0.284198 0.899812
O43   O     O_2   0.368806 0.713042 0.197686 -0.510260
O44   O     O_R   0.441540 0.697631 0.319807 -0.691654
H22   H     H_    0.474831 0.690932 0.266956 0.371924
C115  C     C_2   0.159112 0.098163 0.568011 0.891118
O45   O     O_2   0.112199 0.070438 0.534522 -0.491592
O46   O     O_R   0.193075 0.076049 0.647707 -0.732957
H23   H     H_    0.174373 0.036738 0.670775 0.380130
C116  C     C_2   0.838698 0.901671 0.416192 0.916598
O47   O     O_2   0.806741 0.924282 0.351307 -0.542758
O48   O     O_R   0.895533 0.930003 0.451257 -0.679093
H24   H     H_    0.904927 0.968958 0.417409 0.372825
C117  C     C_2   0.867165 0.246098 0.745145 0.887265
O49   O     O_2   0.861413 0.292389 0.792646 -0.520314
O50   O     O_R   0.914162 0.203086 0.770578 -0.714404
H25   H     H_    0.940634 0.215474 0.829526 0.373080
C118  C     C_2   0.259179 0.643700 0.263694 0.927377
O51   O     O_2   0.296484 0.601584 0.247827 -0.485339
O52   O     O_R   0.206274 0.655249 0.201869 -0.712822
H26   H     H_    0.204715 0.626649 0.144764 0.370837
C119  C     C_2   0.064102 0.191582 0.525373 0.881166
O53   O     O_2   0.034657 0.161836 0.464474 -0.499600
O54   O     O_R   0.030400 0.216162 0.603673 -0.739002
H27   H     H_    0.981660 0.206564 0.601384 0.353044
C120  C     C_2   0.931217 0.804857 0.430641 0.897699
O55   O     O_2   0.943740 0.813765 0.346492 -0.529284
O56   O     O_R   0.981612 0.803930 0.499369 -0.680475
H28   H     H_    0.026621 0.810631 0.470630 0.362033
C121  C     C_2   0.277569 0.825712 0.762362 0.885976
O57   O     O_2   0.235735 0.854028 0.806585 -0.468142
O58   O     O_R   0.342682 0.824445 0.795761 -0.729239
H29   H     H_    0.349040 0.848429 0.857479 0.365398
C122  C     C_2   0.704574 0.196488 0.228447 0.930650
O59   O     O_2   0.741812 0.175990 0.167743 -0.484559
O60   O     O_R   0.636913 0.199769 0.209871 -0.723268
H30   H     H_    0.624602 0.182645 0.144399 0.363974
C123  C     C_2   0.566136 0.698059 0.560276 0.884758
O61   O     O_2   0.533274 0.664220 0.509464 -0.480598
O62   O     O_R   0.537213 0.728702 0.637414 -0.728344
H31   H     H_    0.488660 0.719274 0.643781 0.359424
C124  C     C_2   0.435132 0.307804 0.467432 0.899845
O63   O     O_2   0.455629 0.322048 0.388854 -0.527314
O64   O     O_R   0.478566 0.301883 0.545018 -0.698874
H32   H     H_    0.525890 0.310244 0.527101 0.360303
C125  C     C_2   0.117621 0.474172 0.744775 0.952527
O65   O     O_2   0.147224 0.506987 0.690845 -0.519818
O66   O     O_R   0.141264 0.416489 0.763611 -0.732768
H33   H     H_    0.182934 0.406440 0.727318 0.360876
C126  C     C_2   0.879136 0.501529 0.246981 0.972741
O67   O     O_2   0.849887 0.455406 0.225255 -0.575195
O68   O     O_R   0.846560 0.548359 0.294687 -0.703704
H34   H     H_    0.797760 0.540749 0.301733 0.381400
C127  C     C_2   0.882207 0.519408 0.741392 0.982726
O69   O     O_2   0.850500 0.478144 0.705855 -0.496690
O70   O     O_R   0.858439 0.578343 0.740545 -0.720497
H35   H     H_    0.814617 0.581889 0.706534 0.376686
C128  C     C_2   0.116241 0.471014 0.258870 0.984697
O71   O     O_2   0.149821 0.505520 0.307040 -0.537021
O72   O     O_R   0.133948 0.410453 0.249900 -0.715715
H36   H     H_    0.175255 0.400430 0.287806 0.365867
C129  C     C_2   0.617142 0.972613 0.745349 0.954093
O73   O     O_2   0.646397 0.005245 0.690740 -0.540533
O74   O     O_R   0.640937 0.914941 0.763886 -0.722606
H37   H     H_    0.682237 0.904920 0.726582 0.355463
C130  C     C_2   0.381796 0.024421 0.253602 0.950326
O75   O     O_2   0.353399 0.991894 0.309289 -0.532254
O76   O     O_R   0.355949 0.080897 0.231957 -0.730110
H38   H     H_    0.314165 0.090406 0.268395 0.359782
C131  C     C_2   0.383385 0.028474 0.743225 0.969989
O77   O     O_2   0.352300 0.995211 0.689421 -0.533314
O78   O     O_R   0.362187 0.087470 0.759841 -0.720387
H39   H     H_    0.321221 0.097809 0.721406 0.370971
C132  C     C_2   0.617095 0.972486 0.255690 0.973009
O79   O     O_2   0.647380 0.004755 0.311938 -0.520862
O80   O     O_R   0.639727 0.914468 0.234735 -0.713113
H40   H     H_    0.680747 0.903742 0.272756 0.369942
Br1   Br    Br    0.794543 0.497173 0.905603 -0.291361
Br2   Br    Br    0.210337 0.495765 0.107192 -0.298753
Br3   Br    Br    0.201131 0.537204 0.890907 -0.285164
Br4   Br    Br    0.817117 0.582795 0.096026 -0.316601
Br5   Br    Br    0.294637 0.978977 0.887424 -0.310787
Br6   Br    Br    0.698548 0.039698 0.118215 -0.294263
Br7   Br    Br    0.702819 0.028616 0.892795 -0.289852
Br8   Br    Br    0.304282 0.952147 0.109861 -0.289636

loop_
_geom_bond_atom_site_label_1
_geom_bond_atom_site_label_2
_geom_bond_distance
_ccdc_geom_bond_type
C63   C67   1.411961 A    
O36   H18   1.013901 S    
C129  O74   1.398137 S    
C109  O33   1.223062 D    
C83   C89   1.406876 A    
C17   C25   1.410913 A    
C45   C53   1.414752 A    
O2    C2    1.308309 A    
C118  O52   1.397681 S    
C110  O35   1.223133 D    
C59   C111  1.490456 S    
C69   C121  1.490824 S    
O24   H12   1.013441 S    
C14   C22   1.390255 A    
C61   C113  1.482204 S    
O52   H26   1.012626 S    
C23   C31   1.407719 A    
C103  O22   1.399985 S    
C104  O23   1.223542 D    
O15   Cu4   1.966493 S    
O68   H34   1.012034 S    
C83   C95   1.422927 A    
C91   C92   1.436556 A    
C12   C52   1.400196 A    
C78   N4    1.379992 A    
C119  O53   1.222612 D    
Cu4   N4    2.042181 S    
C102  O20   1.399765 S    
O80   H40   1.013627 S    
C15   C55   1.398254 A    
C130  O75   1.220383 D    
C94   C95   1.415362 A    
O7    Cu2   1.966493 S    
C84   C90   1.406873 A    
O12   Cu4   1.964776 S    
C13   C53   1.400248 A    
C78   C130  1.470799 S    
C19   C27   1.413837 A    
C75   C81   1.434590 A    
C39   C63   1.424521 A    
C53   C70   1.419759 A    
C132  O79   1.219732 D    
C38   C62   1.425522 A    
C131  O77   1.220081 D    
C82   C94   1.438099 A    
C114  O44   1.397964 S    
O6    Cu1   1.973784 S    
C99   Br7   1.939137 S    
C30   C106  1.483190 S    
C57   C109  1.482619 S    
O72   H36   1.013912 S    
C46   C54   1.411062 A    
C113  O41   1.223061 D    
C29   C37   1.422723 A    
C42   C50   1.414368 A    
C94   Br2   1.946852 S    
C115  O46   1.398511 S    
C128  O71   1.219444 D    
C118  O51   1.222683 D    
O14   C8    1.310886 A    
C117  O50   1.397687 S    
O64   H32   1.013878 S    
C123  O61   1.222566 D    
C67   C119  1.486238 S    
C70   C122  1.484472 S    
C32   C40   1.419661 A    
C39   C47   1.425378 A    
C33   C41   1.429623 A    
C41   C46   1.410433 A    
C38   C46   1.428443 A    
C107  O29   1.221663 D    
O70   H35   1.008392 S    
C95   Br3   1.946662 S    
C112  O40   1.398516 S    
C35   C43   1.421994 A    
C93   C96   1.394191 A    
C87   C99   1.430903 A    
O26   H13   1.013932 S    
C36   C44   1.424075 A    
O13   Cu4   1.973787 S    
O14   Cu3   1.973784 S    
C106  O28   1.397181 S    
C16   C56   1.395066 A    
C126  O67   1.221337 D    
Cu2   N2    2.042181 S    
C59   C71   1.406820 A    
C28   C36   1.422425 A    
O9    Cu3   1.962427 S    
Cu1   N1    2.042181 S    
C32   C108  1.486946 S    
C97   C100  1.413427 A    
C76   C128  1.461226 S    
C85   C97   1.433391 A    
C24   C32   1.407104 A    
O16   Cu3   1.966496 S    
C121  O58   1.398683 S    
C77   N3    1.381617 A    
Cu3   N3    2.042181 S    
O50   H25   1.013748 S    
C107  O30   1.398690 S    
C129  O73   1.220613 D    
O1    Cu1   1.962427 S    
C8    C21   1.486284 S    
C110  O36   1.398758 S    
C80   C132  1.469187 S    
C115  O45   1.222633 D    
C15   H7    1.082935 S    
C21   C29   1.417846 A    
O3    C2    1.304721 A    
C104  O24   1.394488 S    
O13   C7    1.307563 A    
C93   Br1   1.941197 S    
C108  O31   1.223574 D    
O28   H14   1.013931 S    
C9    C49   1.393080 A    
O7    C4    1.310737 A    
C111  O38   1.395829 S    
C31   C39   1.423437 A    
C124  O64   1.397885 S    
C120  O55   1.222677 D    
C130  O76   1.397862 S    
O8    C3    1.307662 A    
C62   C114  1.487045 S    
O54   H27   1.013619 S    
C30   C38   1.428024 A    
C44   C47   1.409368 A    
C80   C86   1.435218 A    
O18   H9    1.013799 S    
C74   C84   1.430409 A    
O62   H31   1.013919 S    
O76   H38   1.013165 S    
C113  O42   1.398126 S    
O60   H30   1.013921 S    
C131  O78   1.398071 S    
C109  O34   1.396572 S    
C108  O32   1.392934 S    
C34   C42   1.405377 A    
C116  O48   1.398422 S    
C122  O59   1.222510 D    
C111  O37   1.222935 D    
O12   C5    1.301714 A    
C31   C107  1.490632 S    
C58   C110  1.495035 S    
O10   C6    1.302587 A    
C82   C90   1.414440 A    
O46   H23   1.013804 S    
C88   C92   1.410923 A    
C132  O80   1.397723 S    
C1    C20   1.454340 S    
C22   C30   1.414670 A    
C60   C72   1.409666 A    
C33   C57   1.426016 A    
C2    C19   1.465781 S    
O56   H28   1.013880 S    
C125  O65   1.220596 D    
C86   C98   1.421724 A    
C3    C18   1.484667 S    
C100  Br8   1.946517 S    
C5    C24   1.446428 S    
C35   C59   1.430178 A    
C25   C101  1.485184 S    
C7    C22   1.473475 S    
O30   H15   1.013858 S    
O66   H33   1.012654 S    
C125  O66   1.398145 S    
O11   Cu3   1.964775 S    
C64   C116  1.490221 S    
C75   C127  1.452682 S    
C97   Br5   1.943725 S    
C57   C69   1.407375 A    
C28   C104  1.488024 S    
C26   C34   1.406309 A    
C124  O63   1.222824 D    
O42   H21   1.012298 S    
C16   H8    1.083970 S    
C86   C92   1.412510 A    
C48   C56   1.416813 A    
C51   C68   1.414681 A    
C126  O68   1.396547 S    
C66   C118  1.485553 S    
C77   C129  1.468239 S    
C89   C90   1.438895 A    
C121  O57   1.222250 D    
C55   C72   1.413815 A    
C14   C54   1.391232 A    
C26   C102  1.486227 S    
C76   C82   1.447066 A    
O4    C1    1.302557 A    
C65   C117  1.484385 S    
O15   C8    1.311866 A    
C12   H4    1.083455 S    
C43   C51   1.418378 A    
C72   C124  1.486765 S    
C112  O39   1.223321 D    
O16   C7    1.307958 A    
C68   C120  1.485170 S    
C127  O70   1.397412 S    
C101  O17   1.223504 D    
C73   C83   1.436398 A    
C37   C61   1.420906 A    
C76   N2    1.388567 A    
C16   C24   1.382421 A    
C47   C55   1.417729 A    
O8    Cu1   1.966496 S    
O78   H39   1.013689 S    
O34   H17   1.013871 S    
C52   C67   1.413826 A    
C15   C23   1.384813 A    
C54   C69   1.411717 A    
C27   C35   1.420212 A    
C119  O54   1.397662 S    
O10   Cu4   1.962427 S    
C20   C28   1.406970 A    
C43   C48   1.407163 A    
C12   C20   1.386559 A    
C42   C45   1.402409 A    
C78   C88   1.435272 A    
C88   C100  1.420870 A    
C79   N3    1.382156 A    
C63   C115  1.491648 S    
O5    Cu2   1.973787 S    
C64   C68   1.410485 A    
C37   C45   1.411934 A    
O2    Cu2   1.962427 S    
O4    Cu2   1.964776 S    
O20   H10   1.013976 S    
O5    C3    1.313834 A    
C87   C91   1.415547 A    
O40   H20   1.013816 S    
C122  O60   1.398144 S    
C79   C131  1.466173 S    
O6    C4    1.303613 A    
C102  O19   1.212369 D    
C27   C103  1.477493 S    
O11   C6    1.302241 A    
O1    C1    1.303815 A    
C36   C60   1.424756 A    
C29   C105  1.490073 S    
C71   C123  1.487982 S    
C75   N1    1.375698 A    
C41   C49   1.413527 A    
C60   C112  1.490081 S    
C14   H6    1.080173 S    
C105  O26   1.398978 S    
C98   C99   1.412911 A    
Cu1   Cu2   2.718070 S    
C13   C21   1.401344 A    
O44   H22   1.013751 S    
C10   H2    1.081705 S    
O38   H19   1.013830 S    
C62   C66   1.406777 A    
C105  O25   1.219265 D    
C9    H1    1.077719 S    
C4    C17   1.469383 S    
C40   C64   1.423774 A    
O9    C5    1.302456 A    
C114  O43   1.223342 D    
C58   C70   1.415279 A    
C11   H3    1.083151 S    
C81   C93   1.425141 A    
C11   C51   1.400864 A    
C120  O56   1.396667 S    
C11   C19   1.387449 A    
C13   H5    1.079268 S    
C44   C52   1.416759 A    
O58   H29   1.013704 S    
C85   C91   1.417182 A    
C117  O49   1.222842 D    
C96   Br4   1.936362 S    
C127  O69   1.220519 D    
C18   C26   1.412996 A    
O32   H16   1.013149 S    
C74   N2    1.378984 A    
C56   C71   1.408387 A    
C25   C33   1.424983 A    
O48   H24   1.013791 S    
C98   Br6   1.946221 S    
C80   N4    1.379016 A    
C10   C50   1.409845 A    
O3    Cu1   1.964775 S    
C81   C89   1.417482 A    
C40   C48   1.420732 A    
C74   C126  1.461359 S    
C123  O62   1.398065 S    
C116  O47   1.223104 D    
C84   C96   1.418403 A    
C9    C17   1.388112 A    
Cu3   Cu4   2.718070 S    
C101  O18   1.395792 S    
C77   C87   1.438420 A    
C73   C125  1.467324 S    
C10   C18   1.402442 A    
C128  O72   1.398980 S    
C106  O27   1.223451 D    
C103  O21   1.217543 D    
C50   C65   1.414301 A    
C73   N1    1.382029 A    
C79   C85   1.439545 A    
C6    C23   1.452193 S    
C61   C65   1.417702 A    
C49   C66   1.412661 A    
O22   H11   1.013352 S    
O74   H37   1.013459 S    
C34   C58   1.416329 A    
