data_mof_unit_pretest_631.cif
_audit_creation_date              2013-03-05T15:42:48-0500
_audit_creation_method            fapswitch 2.2
_symmetry_space_group_name_H-M    P1
_symmetry_Int_Tables_number       1
_space_group_crystal_system       triclinic
_cell_length_a                    6.94644
_cell_length_b                    14.91881
_cell_length_c                    16.253524
_cell_angle_alpha                 90.23452
_cell_angle_beta                  90.549433
_cell_angle_gamma                 89.589854
_cell_volume                      1684.2610113

loop_
_atom_site_label
_atom_site_type_symbol
_atom_site_description
_atom_site_fract_x
_atom_site_fract_y
_atom_site_fract_z
_atom_type_partial_charge
O1    O     O_R   0.494400 0.416610 0.413880 -0.564803
O2    O     O_R   0.823920 0.406790 0.585520 -0.518603
O3    O     O_R   0.994250 0.583390 0.586120 -0.519623
C1    C     C_R   0.655134 0.378416 0.607002 0.870229
O4    O     O_R   0.824110 0.405730 0.414490 -0.551864
O5    O     O_R   0.994440 0.582310 0.413870 -0.559792
C2    C     C_R   0.655072 0.382093 0.387575 0.847269
O6    O     O_R   0.494210 0.417690 0.586130 -0.498514
O7    O     O_3   0.660810 0.557940 0.500000 -0.275469
V1    V     V_3+5 0.935650 0.489250 0.500000 1.335532
O8    O     O_R   0.324160 0.593210 0.414480 -0.551801
C3    C     C_R   0.155544 0.609217 0.382457 0.892188
O9    O     O_R   0.323970 0.594270 0.585510 -0.555898
C4    C     C_R   0.154695 0.619971 0.611207 0.933015
V2    V     V_3+5 0.435660 0.510750 0.500000 1.301605
O10   O     O_3   0.160630 0.442060 0.500000 -0.228369
H1    H     H_    0.923600 0.923050 0.515978 0.177882
C5    C     C_R   0.306294 0.579650 0.775389 0.229104
C6    C     C_R   0.430526 0.568162 0.843536 0.276409
C7    C     C_R   0.416987 0.627918 0.908575 -0.147378
C8    C     C_R   0.287778 0.699671 0.905131 0.305472
C9    C     C_R   0.208200 0.726778 0.827607 -0.067955
C10   C     C_R   0.220681 0.665142 0.760217 -0.103439
C11   C     C_R   0.121619 0.812619 0.815564 -0.060553
C12   C     C_R   0.065373 0.839320 0.735068 -0.052492
C13   C     C_R   0.073684 0.777621 0.667305 -0.061505
C14   C     C_R   0.145466 0.688143 0.680465 -0.082467
C15   C     C_R   0.014176 0.930193 0.720059 -0.143924
C16   C     C_R   0.964947 0.960142 0.641608 0.306536
C17   C     C_R   0.957262 0.899288 0.577437 -0.043323
C18   C     C_R   0.016720 0.810616 0.588090 0.286526
H2    H     H_    0.492679 0.612912 0.965490 0.179211
H3    H     H_    0.018347 0.980186 0.768416 0.092886
C19   C     C_2   0.990950 0.708364 0.279736 0.000257
C20   C     C_2   0.151811 0.669457 0.310216 -0.092084
H4    H     H_    0.852554 0.691563 0.305814 0.132216
H5    H     H_    0.288322 0.680080 0.280149 0.127154
C21   C     C_2   0.988802 0.768332 0.206380 -0.061486
C22   C     C_2   0.125179 0.829446 0.187982 0.270376
H6    H     H_    0.862616 0.763407 0.166680 0.116266
C23   C     C_2   0.750639 0.191752 0.769775 -0.049262
C24   C     C_2   0.607162 0.184540 0.823552 0.249118
H7    H     H_    0.872226 0.146260 0.775618 0.109956
C25   C     C_2   0.772005 0.268880 0.713606 0.320332
C26   C     C_2   0.640863 0.291970 0.653573 0.178721
C27   C     C_2   0.774760 0.198181 0.222549 -0.106861
C28   C     C_2   0.612298 0.177581 0.180606 -0.217327
H8    H     H_    0.907989 0.165855 0.203809 0.146615
H9    H     H_    0.474724 0.204706 0.199824 0.120781
C29   C     C_2   0.785894 0.257081 0.297763 0.326319
C30   C     C_2   0.642592 0.315332 0.319177 -0.213186
H10   H     H_    0.510805 0.317903 0.283105 0.084113
O11   O     O_R   0.770210 0.079270 0.910680 -0.589253
O12   O     O_R   0.440150 0.091160 0.082270 -0.555153
O13   O     O_R   0.269970 0.914530 0.082860 -0.504668
C31   C     C_R   0.608662 0.112441 0.111102 0.882345
O14   O     O_R   0.440480 0.090100 0.911240 -0.527339
O15   O     O_R   0.270310 0.913460 0.910610 -0.566287
C32   C     C_R   0.607306 0.112378 0.884453 0.800608
O16   O     O_R   0.769870 0.080340 0.082930 -0.570480
O17   O     O_3   0.603660 0.938980 0.996790 -0.256568
V3    V     V_3+5 0.328750 0.007610 0.996740 1.260732
O18   O     O_R   0.940600 0.902510 0.911180 -0.546645
C33   C     C_R   0.110131 0.879531 0.884110 0.877750
O19   O     O_R   0.940270 0.903570 0.082200 -0.567488
C34   C     C_R   0.109567 0.886698 0.113705 0.916184
V4    V     V_3+5 0.828770 0.986010 0.996670 1.225341
O20   O     O_3   0.103730 0.054750 0.996710 -0.279649
Cl1   Cl    Cl    0.320595 0.852960 0.255114 -0.601098
Cl2   Cl    Cl    0.416282 0.262708 0.826774 -0.451893
N1    N     N_R   0.947876 0.316231 0.724179 0.132428
O21   O     O_R   0.004905 0.334536 0.798849 -0.203621
O22   O     O_R   0.075918 0.309640 0.666667 -0.197357
N2    N     N_R   0.489208 0.230679 0.628211 0.136664
O23   O     O_R   0.484890 0.148474 0.654499 -0.289653
O24   O     O_R   0.377700 0.251076 0.566150 -0.229647
N3    N     N_R   0.956665 0.248824 0.348135 0.108467
O25   O     O_R   0.124337 0.240536 0.313813 -0.362353
O26   O     O_R   0.941668 0.232881 0.426490 -0.256626
N4    N     N_R   0.223327 0.501706 0.738260 0.105755
O27   O     O_R   0.323459 0.428806 0.729119 -0.231778
O28   O     O_R   0.037005 0.497767 0.731329 -0.292712
N5    N     N_R   0.554041 0.491130 0.851444 0.151783
O29   O     O_R   0.665119 0.468456 0.790819 -0.299833
O30   O     O_R   0.581065 0.453500 0.922786 -0.289027
N6    N     N_R   0.221386 0.734551 0.981976 0.062662
O31   O     O_R   0.339699 0.736888 0.044532 -0.375158
O32   O     O_R   0.037233 0.734393 0.995938 -0.391278
N7    N     N_R   0.943407 0.053930 0.625063 0.093908
O33   O     O_R   0.829239 0.081047 0.566151 -0.275873
O34   O     O_R   0.068633 0.109574 0.655558 -0.271433
N8    N     N_R   0.045062 0.761432 0.514303 0.045592
O35   O     O_R   0.897036 0.749389 0.466013 -0.354051
O36   O     O_R   0.216047 0.763312 0.482493 -0.351413

loop_
_geom_bond_atom_site_label_1
_geom_bond_atom_site_label_2
_geom_bond_distance
_ccdc_geom_bond_type
O15   V3    2.019566 S    
C23   C24   1.337124 D    
C6    C7    1.383497 A    
C1    O6    1.301140 A    
C16   N7    1.432401 S    
O11   C32   1.300261 A    
O14   V3    2.023964 S    
C28   H9    1.083401 S    
N3    O25   1.301115 A    
C12   C15   1.420589 A    
C13   C14   1.437750 A    
N2    O24   1.301620 A    
C15   C16   1.391619 A    
C20   H5    1.083891 S    
C5    C6    1.407859 A    
O5    C3    1.301258 A    
C17   C18   1.394004 A    
N6    O32   1.301348 A    
O14   C32   1.288153 A    
V2    O10   2.174425 S    
O13   V3    2.022216 S    
C24   Cl2   1.760544 S    
C25   N1    1.424214 S    
C19   C20   1.346624 D    
C27   C28   1.349545 D    
O8    V2    2.006268 S    
O16   V4    2.024885 S    
O19   V4    2.006198 S    
O1    V2    2.021127 S    
C10   C14   1.434954 A    
C4    C14   1.515495 S    
N7    O34   1.300076 A    
O7    V1    2.160333 S    
C13   C18   1.431511 A    
C11   C33   1.495183 S    
C19   C21   1.493458 S    
O9    C4    1.306049 A    
H1    C17   1.084171 S    
C23   H7    1.083412 S    
C6    N5    1.434706 S    
O18   V4    2.019577 S    
C1    C26   1.502422 S    
N3    O26   1.301807 A    
O15   C33   1.294936 A    
O12   C31   1.297763 A    
N2    O23   1.300995 A    
V4    O20   2.174346 S    
C11   C12   1.419613 A    
N4    O28   1.299818 A    
O4    C2    1.299737 A    
N6    O31   1.301752 A    
O12   V3    2.015948 S    
C12   C13   1.433824 A    
C5    C10   1.424818 A    
C26   N2    1.455416 S    
O2    C1    1.300744 A    
C16   C17   1.380870 A    
O17   V4    1.718506 S    
N5    O29   1.299564 A    
N8    O36   1.300465 A    
C29   C30   1.363473 D    
C22   Cl1   1.769622 S    
C3    C20   1.481469 S    
O3    C4    1.305539 A    
N5    O30   1.301761 A    
C15   H3    1.081640 S    
O19   C34   1.301474 A    
O6    V2    2.012359 S    
O9    V2    2.019606 S    
C22   C34   1.484393 S    
C9    C11   1.424377 A    
O2    V1    2.023916 S    
C29   N3    1.439714 S    
O13   C34   1.297805 A    
C25   C26   1.371800 D    
N1    O22   1.299430 A    
C7    H2    1.083062 S    
C8    N6    1.430304 S    
O1    C2    1.301068 A    
N4    O27   1.295575 A    
C24   C32   1.465434 S    
O5    V1    2.022136 S    
O8    C3    1.298134 A    
C27   C29   1.504324 S    
V3    O20   1.709411 S    
O7    V2    1.719731 S    
C2    C30   1.491881 S    
C30   H10   1.082887 S    
O3    V1    2.019572 S    
V1    O10   1.709464 S    
C21   H6    1.086174 S    
C21   C22   1.355785 D    
N8    O35   1.300627 A    
C23   C25   1.480918 S    
C19   H4    1.085733 S    
O17   V3    2.160338 S    
O11   V4    2.012852 S    
O18   C33   1.304175 A    
C27   H8    1.086116 S    
C31   O16   1.301301 A    
O4    V1    2.015822 S    
N1    O21   1.301573 A    
C7    C8    1.392977 A    
C5    N4    1.430278 S    
C18   N8    1.418011 S    
C9    C10   1.430114 A    
N7    O33   1.301341 A    
C8    C9    1.429840 A    
C28   C31   1.487297 S    
