data_mof_unit_pretest_1892.cif
_audit_creation_date              2012-12-10T18:18:42-0500
_audit_creation_method            fapswitch 2.2
_symmetry_space_group_name_H-M    P1
_symmetry_Int_Tables_number       1
_space_group_crystal_system       triclinic
_cell_length_a                    23.545789
_cell_length_b                    14.661968
_cell_length_c                    15.906005
_cell_angle_alpha                 89.972709
_cell_angle_beta                  90.029845
_cell_angle_gamma                 89.748367
_cell_volume                      5491.13767775

loop_
_atom_site_label
_atom_site_type_symbol
_atom_type_description
_atom_site_fract_x
_atom_site_fract_y
_atom_site_fract_z
_atom_type_partial_charge
C1    C     C_R   0.500123 0.499979 0.660255 0.812390
C2    C     C_R   0.029897 0.439716 0.638028 -0.119775
C3    C     C_R   0.970770 0.440436 0.638562 -0.114871
C4    C     C_R   0.940419 0.474810 0.569510 -0.020066
C5    C     C_R   0.970121 0.509151 0.499375 -0.008636
C6    C     C_R   0.939789 0.543867 0.430176 -0.105144
C7    C     C_R   0.969398 0.578015 0.360745 -0.147970
C8    C     C_R   0.028692 0.577730 0.358731 0.413549
C9    C     C_R   0.880850 0.475206 0.568450 0.649553
C10   C     C_R   0.880199 0.543052 0.431951 0.680427
C11   C     C_R   0.763626 0.429329 0.464987 0.343830
C12   C     C_R   0.609426 0.499694 0.498431 0.893407
C13   C     C_R   0.704002 0.426095 0.463384 0.329485
C14   C     C_R   0.672096 0.499549 0.497233 -0.264041
C15   C     C_R   0.700612 0.575319 0.530517 -0.262218
C16   C     C_R   0.759689 0.578430 0.531679 0.413505
C17   C     C_R   0.791343 0.505403 0.499213 0.099822
C18   C     C_R   0.238423 0.420240 0.497249 -0.069694
C19   C     C_R   0.297663 0.418971 0.497575 -0.182338
C20   C     C_R   0.328180 0.501102 0.499970 -0.045218
C21   C     C_R   0.298399 0.584379 0.502187 -0.177740
C22   C     C_R   0.239218 0.585452 0.501980 -0.076942
C23   C     C_R   0.500123 0.500014 0.339912 0.829361
C24   C     C_R   0.209005 0.503468 0.499410 0.325203
C25   C     C_3   0.475375 0.408871 0.950611 -0.416077
C26   C     C_3   0.463486 0.580381 0.950477 -0.419707
C27   C     C_3   0.470343 0.590382 0.047467 0.610979
C28   C     C_3   0.466536 0.413508 0.047596 0.606223
C29   C     C_1   0.500181 0.500033 0.250485 0.006851
C30   C     C_3   0.500237 0.499908 0.917249 -0.024042
C31   C     C_3   0.500234 0.499971 0.082978 -0.194887
C32   C     C_3   0.563830 0.495976 0.047606 0.601883
C33   C     C_3   0.561863 0.510502 0.950596 -0.408792
C34   C     C_1   0.500220 0.500011 0.175112 0.205180
C35   C     C_1   0.500217 0.499900 0.825196 0.042512
C36   C     C_R   0.390705 0.500231 0.500059 0.801337
C37   C     C_1   0.500177 0.499929 0.749774 -0.129231
C38   C     C_3   0.457634 0.946460 0.428827 0.141971
C39   C     C_3   0.457568 0.054218 0.428913 0.139045
C40   C     C_3   0.560505 0.945694 0.475937 0.224289
C41   C     C_3   0.560483 0.053474 0.475741 0.244145
C42   C     C_3   0.499950 0.907948 0.495954 -0.097993
C43   C     C_3   0.499960 0.092060 0.495935 -0.109243
C44   C     C_3   0.481379 0.053261 0.582621 -0.422141
C45   C     C_3   0.481264 0.946937 0.582580 -0.416906
C46   C     C_1   0.499115 0.195212 0.497531 0.310954
C47   C     C_1   0.499107 0.804793 0.497544 0.295549
C48   C     C_R   0.120162 0.539072 0.429971 0.594420
C49   C     C_R   0.119386 0.472502 0.567174 0.551747
C50   C     C_R   0.059976 0.473229 0.568378 0.003305
C51   C     C_R   0.030155 0.508389 0.498462 -0.052688
C52   C     C_R   0.060115 0.542383 0.427918 -0.120231
Cu1   Cu    Cu3+1 0.500070 0.410080 0.500090 1.080371
Cu2   Cu    Cu3+1 0.500070 0.589920 0.500090 1.055310
H1    H     H_    0.319501 0.353844 0.495747 0.171644
H2    H     H_    0.475432 0.644654 0.917813 0.221311
H3    H     H_    0.505063 0.352319 0.934304 0.230563
H4    H     H_    0.509875 0.921403 0.633095 0.255287
H5    H     H_    0.510175 0.078130 0.633002 0.255043
H6    H     H_    0.414161 0.923787 0.446390 0.124065
H7    H     H_    0.414100 0.077317 0.446703 0.122773
H8    H     H_    0.946446 0.605137 0.307153 0.230274
H9    H     H_    0.676909 0.632170 0.556556 0.234648
H10   H     H_    0.215308 0.356603 0.495013 0.159980
N1    N     N_R   0.148052 0.504875 0.498790 -0.481163
N2    N     N_R   0.852190 0.508619 0.500185 -0.435042
N3    N     N_1   0.498850 0.275030 0.498610 -0.126566
N4    N     N_1   0.498850 0.724970 0.498610 -0.135121
O1    O     O_R   0.500060 0.424030 0.620640 -0.572917
O2    O     O_R   0.500060 0.575970 0.620640 -0.574189
O3    O     O_R   0.582180 0.424050 0.500100 -0.522546
O4    O     O_R   0.582180 0.575950 0.500100 -0.570004
O5    O     O_R   0.500060 0.424100 0.379510 -0.539754
O6    O     O_R   0.500060 0.575900 0.379510 -0.548296
O7    O     O_R   0.417940 0.424080 0.500050 -0.586323
O8    O     O_R   0.417940 0.575920 0.500050 -0.583410
O9    O     O_2   0.150874 0.568679 0.364011 -0.424874
O10   O     O_2   0.148456 0.440286 0.634136 -0.509240
O11   O     O_2   0.851716 0.442107 0.634739 -0.474444
O12   O     O_2   0.850387 0.575865 0.365976 -0.458679
H11   H     H_    0.051949 0.412538 0.692376 0.204181
H12   H     H_    0.320771 0.648720 0.504157 0.171833
H13   H     H_    0.216737 0.650008 0.503927 0.159974
Cl1   Cl    Cl    0.391636 0.415118 0.068802 -0.438702
Cl2   Cl    Cl    0.402841 0.616429 0.094809 -0.408109
H14   H     H_    0.434697 0.393552 0.917953 0.219479
H15   H     H_    0.418261 0.567593 0.934063 0.227662
Cl3   Cl    Cl    0.508357 0.693760 0.068742 -0.399178
Cl4   Cl    Cl    0.486494 0.306733 0.095157 -0.371207
H16   H     H_    0.590602 0.461493 0.918025 0.225457
H17   H     H_    0.577409 0.579835 0.934169 0.232123
Cl5   Cl    Cl    0.600699 0.391025 0.069020 -0.400381
Cl6   Cl    Cl    0.611358 0.576755 0.095005 -0.395444
Cl7   Cl    Cl    0.469791 0.104482 0.327113 -0.407618
Cl8   Cl    Cl    0.470128 0.896371 0.327011 -0.413979
H18   H     H_    0.948965 0.413775 0.693180 0.206932
Cl9   Cl    Cl    0.613244 0.895454 0.544064 -0.442559
Cl10  Cl    Cl    0.613400 0.103258 0.543338 -0.403930
H19   H     H_    0.572738 0.922528 0.411884 0.167960
H20   H     H_    0.572538 0.076277 0.411529 0.174593
H21   H     H_    0.437867 0.922348 0.598122 0.178257
H22   H     H_    0.438071 0.078674 0.598411 0.179183
Cl11  Cl    Cl    0.059764 0.623378 0.267027 -0.416221
Cl12  Cl    Cl    0.804385 0.338460 0.423620 -0.395743
Cl13  Cl    Cl    0.670781 0.331680 0.414926 -0.375211
Cl14  Cl    Cl    0.793477 0.674685 0.574277 -0.442387

loop_
_geom_bond_atom_site_label_1
_geom_bond_atom_site_label_2
_ccdc_geom_bond_type
C28   Cl1   S    
C19   C20   A    
Cu1   O1    S    
C40   H19   S    
C7    C8    A    
C39   Cl7   S    
Cu1   Cu2   S    
C25   C28   S    
C26   C27   S    
C49   N1    A    
C30   C35   S    
C18   C24   A    
C23   C29   S    
C35   C37   T    
C38   C42   S    
C33   H17   S    
C5    C6    A    
Cu2   N4    S    
C44   H5    S    
C15   C16   A    
C49   O10   S    
C18   C19   A    
C9    O11   S    
C27   Cl2   S    
C9    N2    A    
C2    C50   A    
Cu2   O6    S    
C26   H15   S    
C38   Cl8   S    
C3    H18   S    
C48   N1    A    
C36   O8    A    
C8    C52   A    
C16   Cl14  S    
C40   C42   S    
C32   Cl6   S    
C12   O4    A    
C21   C22   A    
C41   C43   S    
Cu1   O7    S    
C25   H3    S    
C23   O5    A    
C43   C46   S    
C10   N2    A    
C38   C39   S    
C39   H7    S    
C45   H4    S    
C31   C34   S    
C27   C31   S    
C51   C52   A    
C13   Cl13  S    
C40   Cl9   S    
C10   O12   S    
C16   C17   A    
C39   C43   S    
C29   C34   T    
C1    O1    A    
C42   C45   S    
C48   O9    S    
C43   C44   S    
C7    H8    S    
C36   O7    A    
C31   C32   S    
Cu2   O2    S    
C50   C51   A    
C17   N2    S    
C41   H20   S    
C20   C21   A    
C11   Cl12  S    
C45   H21   S    
C24   N1    S    
C38   H6    S    
C40   C41   S    
C12   O3    A    
C12   C14   S    
C26   C30   S    
C28   Cl4   S    
Cu2   O8    S    
C23   O6    A    
C3    C4    A    
Cu1   O3    S    
C47   N4    T    
C44   C45   S    
C19   H1    S    
C25   C30   S    
C11   C17   A    
C44   H22   S    
C30   C33   S    
C41   Cl10  S    
C28   C31   S    
Cu1   O5    S    
C4    C5    A    
C26   H2    S    
C6    C10   A    
C6    C7    A    
C1    C37   S    
C1    O2    A    
C32   C33   S    
C2    C3    A    
C46   N3    T    
C33   H16   S    
C22   H13   S    
C11   C13   A    
C18   H10   S    
C32   Cl5   S    
C25   H14   S    
C22   C24   A    
C42   C47   S    
C27   Cl3   S    
Cu1   N3    S    
C8    Cl11  S    
C20   C36   S    
C48   C52   A    
Cu2   O4    S    
C21   H12   S    
C49   C50   A    
C15   H9    S    
C14   C15   A    
C5    C51   A    
C2    H11   S    
C4    C9    A    
C13   C14   A    
