data_mof_unit_pretest_633.cif
_audit_creation_date              2013-03-05T16:01:31-0500
_audit_creation_method            fapswitch 2.2
_symmetry_space_group_name_H-M    P1
_symmetry_Int_Tables_number       1
_space_group_crystal_system       triclinic
_cell_length_a                    20.108704
_cell_length_b                    7.212629
_cell_length_c                    19.61949
_cell_angle_alpha                 90.014584
_cell_angle_beta                  98.692635
_cell_angle_gamma                 90.068104
_cell_volume                      2812.85643586

loop_
_atom_site_label
_atom_site_type_symbol
_atom_site_description
_atom_site_fract_x
_atom_site_fract_y
_atom_site_fract_z
_atom_type_partial_charge
O1    O     O_R   0.188410 0.619490 0.310050 -0.580657
O2    O     O_R   0.811590 0.380510 0.689950 -0.594359
O3    O     O_R   0.311590 0.119490 0.189950 -0.577846
O4    O     O_R   0.688410 0.880510 0.810050 -0.596482
O5    O     O_R   0.327280 0.288800 0.321740 -0.595924
O6    O     O_R   0.672720 0.711200 0.678260 -0.583502
O7    O     O_R   0.172720 0.788800 0.178260 -0.600924
O8    O     O_R   0.827280 0.211200 0.821740 -0.580953
C1    C     C_R   0.351316 0.457413 0.338884 0.961117
C2    C     C_R   0.648450 0.542546 0.661442 0.990714
C3    C     C_R   0.148641 0.957225 0.161171 0.919335
C4    C     C_R   0.851615 0.042786 0.838546 0.984940
O9    O     O_R   0.189900 0.289710 0.318190 -0.548986
O10   O     O_R   0.810100 0.710290 0.681810 -0.568720
O11   O     O_R   0.310100 0.789710 0.181810 -0.551078
O12   O     O_R   0.689900 0.210290 0.818190 -0.563853
O13   O     O_R   0.173230 0.120350 0.186370 -0.591595
O14   O     O_R   0.826770 0.879650 0.813630 -0.601280
O15   O     O_R   0.326770 0.620350 0.313630 -0.579987
O16   O     O_R   0.673230 0.379650 0.686370 -0.600242
C5    C     C_R   0.169515 0.457955 0.334261 0.959894
C6    C     C_R   0.829948 0.541965 0.666011 1.044311
C7    C     C_R   0.330688 0.957953 0.166146 0.962796
C8    C     C_R   0.670038 0.041780 0.834005 1.038160
O17   O     O_3   0.244690 0.453290 0.206760 -0.277033
O18   O     O_3   0.755310 0.546710 0.793240 -0.286693
O19   O     O_3   0.255310 0.953290 0.293240 -0.261129
O20   O     O_3   0.744690 0.046710 0.706760 -0.287089
V1    V     V_3+5 0.250980 0.178070 0.258020 1.234254
V2    V     V_3+5 0.749020 0.821930 0.741980 1.208608
V3    V     V_3+5 0.249020 0.678070 0.241980 1.230406
V4    V     V_3+5 0.750980 0.321930 0.758020 1.213041
C9    C     C_R   0.425244 0.141753 0.025568 0.413832
C10   C     C_R   0.502824 0.005215 0.899503 0.457738
C11   C     C_R   0.033476 0.652114 0.430166 0.401455
C12   C     C_R   0.998063 0.533004 0.601831 0.422071
C13   C     C_R   0.378313 0.121438 0.071689 -0.230971
C14   C     C_R   0.552436 0.020545 0.856221 -0.314101
C15   C     C_R   0.078056 0.625871 0.382160 -0.218989
C16   C     C_R   0.947844 0.535341 0.644645 -0.323019
H1    H     H_    0.341109 0.228774 0.073984 0.205156
H2    H     H_    0.537599 0.018846 0.800759 0.163968
H3    H     H_    0.080621 0.730944 0.343254 0.210055
H4    H     H_    0.962321 0.541663 0.700111 0.167190
C17   C     C_R   0.379400 0.967193 0.115789 -0.350182
C18   C     C_R   0.621063 0.033181 0.883121 -0.302647
C19   C     C_R   0.119924 0.468920 0.384022 -0.360683
C20   C     C_R   0.879210 0.534814 0.617230 -0.304440
C21   C     C_R   0.428689 0.828875 0.112556 0.397716
C22   C     C_R   0.641049 0.030424 0.955548 0.378606
C23   C     C_R   0.114733 0.331883 0.434827 0.386773
C24   C     C_R   0.859766 0.528874 0.544715 0.372282
C25   C     C_R   0.474529 0.846300 0.065701 -0.186570
C26   C     C_R   0.591291 0.016841 0.998700 -0.245306
C27   C     C_R   0.069676 0.356542 0.482241 -0.144139
C28   C     C_R   0.910158 0.522906 0.502083 -0.186960
H5    H     H_    0.511596 0.738227 0.063619 0.185479
H6    H     H_    0.606010 0.017712 0.054157 0.187904
H7    H     H_    0.065753 0.249580 0.520246 0.191702
H8    H     H_    0.895965 0.516681 0.446614 0.182538
C29   C     C_R   0.473156 0.999645 0.021485 -0.045165
C30   C     C_R   0.522599 0.006421 0.971957 -0.013878
C31   C     C_R   0.028896 0.514544 0.480702 -0.055099
C32   C     C_R   0.978823 0.526147 0.529388 -0.021646
C33   C     C_R   0.087691 0.957208 0.107687 -0.117644
C34   C     C_R   0.912912 0.042395 0.891663 -0.118753
C35   C     C_R   0.412270 0.457652 0.392375 -0.119973
C36   C     C_R   0.587191 0.541652 0.608396 -0.119155
C37   C     C_R   0.017643 0.195659 0.942046 0.002081
C38   C     C_R   0.983658 0.802044 0.056671 -0.000602
C39   C     C_R   0.482683 0.694989 0.558270 0.007356
C40   C     C_R   0.516242 0.302246 0.443123 -0.007305
C41   C     C_R   0.961050 0.182660 0.890727 -0.191840
C42   C     C_R   0.039859 0.816182 0.108319 -0.177897
C43   C     C_R   0.539241 0.681720 0.609501 -0.196871
C44   C     C_R   0.460140 0.317120 0.391414 -0.148723
C45   C     C_R   0.921757 0.912501 0.945325 -0.243917
C46   C     C_R   0.079095 0.086429 0.053804 -0.306475
C47   C     C_R   0.578203 0.411898 0.554658 -0.240086
C48   C     C_R   0.420752 0.585908 0.446665 -0.300741
C49   C     C_R   0.976205 0.927466 0.000234 0.097004
C50   C     C_R   0.024907 0.070693 0.998627 0.113414
C51   C     C_R   0.523748 0.427119 0.499770 0.093611
C52   C     C_R   0.475110 0.570165 0.501628 0.111700
H9    H     H_    0.115854 0.196300 0.054742 0.149988
H10   H     H_    0.884880 0.802987 0.944544 0.158034
H11   H     H_    0.383838 0.695005 0.446273 0.154851
H12   H     H_    0.614983 0.302422 0.555380 0.158587
H13   H     H_    0.045590 0.717860 0.150622 0.137301
H14   H     H_    0.955238 0.281153 0.848482 0.136438
H15   H     H_    0.454401 0.219377 0.348895 0.145151
H16   H     H_    0.545184 0.779992 0.651859 0.136296
N1    N     N_R   0.424514 0.308754 0.985117 0.248340
O21   O     O_R   0.480149 0.378046 0.969735 -0.394026
O22   O     O_R   0.369474 0.404981 0.970826 -0.375064
N2    N     N_R   0.433383 0.985213 0.869002 0.241516
O23   O     O_R   0.412763 0.049920 0.807518 -0.370957
O24   O     O_R   0.392184 0.885326 0.898838 -0.362561
N3    N     N_R   0.994788 0.820659 0.427749 0.241196
O25   O     O_R   0.979430 0.910032 0.369900 -0.393105
O26   O     O_R   0.981497 0.897192 0.484228 -0.388736
N4    N     N_R   0.067690 0.542137 0.632753 0.238524
O27   O     O_R   0.086160 0.481344 0.695197 -0.380722
O28   O     O_R   0.111582 0.629201 0.602127 -0.366872
N5    N     N_R   0.435102 0.673733 0.158478 0.232659
O29   O     O_R   0.488135 0.659557 0.205160 -0.414805
O30   O     O_R   0.396466 0.529912 0.144176 -0.380722
N6    N     N_R   0.710761 0.038603 0.986594 0.214957
O31   O     O_R   0.756120 0.113890 0.954653 -0.459861
O32   O     O_R   0.728477 0.983072 0.049822 -0.465571
N7    N     N_R   0.155263 0.168126 0.440341 0.240246
O33   O     O_R   0.141573 0.036878 0.394946 -0.370796
O34   O     O_R   0.192321 0.129658 0.498789 -0.425812
N8    N     N_R   0.790118 0.526809 0.513090 0.217079
O35   O     O_R   0.742852 0.589952 0.545249 -0.467103
O36   O     O_R   0.774080 0.474712 0.449205 -0.456640
C53   C     C_R   0.068516 0.339825 0.933746 0.112382
C54   C     C_R   0.135150 0.289641 0.928758 -0.167821
C55   C     C_R   0.182606 0.425654 0.919618 -0.029531
C56   C     C_R   0.163784 0.612216 0.914476 -0.044297
C57   C     C_R   0.097333 0.662884 0.917940 -0.096651
C58   C     C_R   0.049759 0.527344 0.927288 -0.146660
H17   H     H_    0.150238 0.145356 0.931890 0.122550
H18   H     H_    0.233871 0.386212 0.916115 0.177819
H19   H     H_    0.200547 0.717334 0.907262 0.145608
H20   H     H_    0.082660 0.807061 0.912964 0.125065
H21   H     H_    0.998345 0.568097 0.929498 0.125244
C59   C     C_R   0.933216 0.656876 0.064912 0.071872
C60   C     C_R   0.952467 0.469822 0.071664 -0.160061
C61   C     C_R   0.905523 0.333948 0.082466 -0.064938
C62   C     C_R   0.839254 0.383963 0.087042 -0.039080
C63   C     C_R   0.819846 0.569886 0.081107 -0.062806
C64   C     C_R   0.866758 0.706192 0.070686 -0.123423
H22   H     H_    0.003866 0.429923 0.068993 0.129735
H23   H     H_    0.920598 0.190190 0.087999 0.128340
H24   H     H_    0.803128 0.279008 0.095962 0.176847
H25   H     H_    0.768626 0.608476 0.085279 0.164902
H26   H     H_    0.851686 0.850298 0.067578 0.176108
C65   C     C_R   0.432221 0.839122 0.567182 0.105171
C66   C     C_R   0.366145 0.788662 0.574470 -0.182780
C67   C     C_R   0.319820 0.924114 0.587031 0.024003
C68   C     C_R   0.339187 0.110404 0.592843 -0.005997
C69   C     C_R   0.404955 0.161449 0.586302 -0.113680
C70   C     C_R   0.451451 0.026384 0.573868 -0.150456
H27   H     H_    0.350830 0.644463 0.571217 0.129005
H28   H     H_    0.269047 0.884386 0.592804 0.176962
H29   H     H_    0.303394 0.215083 0.602922 0.152612
H30   H     H_    0.420051 0.305377 0.591629 0.128819
H31   H     H_    0.502566 0.067053 0.569996 0.127680
C71   C     C_R   0.566350 0.156290 0.434918 0.067320
C72   C     C_R   0.546495 0.969593 0.427741 -0.152560
C73   C     C_R   0.593176 0.832781 0.417445 -0.046158
C74   C     C_R   0.659832 0.881351 0.413928 -0.047761
C75   C     C_R   0.679824 0.066935 0.420118 -0.061369
C76   C     C_R   0.633160 0.204267 0.429920 -0.117604
H32   H     H_    0.494855 0.930617 0.429824 0.130730
H33   H     H_    0.577632 0.689350 0.411581 0.133052
H34   H     H_    0.695817 0.775496 0.405671 0.178306
H35   H     H_    0.731339 0.104426 0.416702 0.172720
H36   H     H_    0.648770 0.348058 0.433336 0.177867

loop_
_geom_bond_atom_site_label_1
_geom_bond_atom_site_label_2
_geom_bond_distance
_ccdc_geom_bond_type
O17   V3    1.759101 S    
C6    C20   1.478692 S    
O1    C5    1.334629 A    
N1    O21   1.301256 A    
C7    C17   1.494134 S    
C27   H7    1.084111 S    
O19   V1    1.759617 S    
O13   V1    1.981822 S    
C58   H21   1.082314 S    
O3    C7    1.333437 A    
C61   H23   1.081504 S    
C10   C30   1.417038 A    
C40   C44   1.402794 A    
O15   V3    1.982755 S    
C59   C60   1.404799 A    
C49   C50   1.426258 A    
C55   H18   1.081872 S    
C36   C43   1.399788 A    
O7    C3    1.332328 A    
N5    O30   1.300157 A    
C22   C26   1.408330 A    
C42   H13   1.084721 S    
C12   N4    1.440734 S    
C10   N2    1.440716 S    
C41   H14   1.084662 S    
C14   H2    1.084017 S    
C48   H11   1.081624 S    
O16   V4    1.982757 S    
O4    C8    1.328003 A    
C38   C59   1.482714 S    
C69   C70   1.397740 A    
O1    V3    1.984587 S    
N6    O31   1.300497 A    
O2    V4    1.984587 S    
C74   H34   1.081422 S    
O3    V1    1.985058 S    
C38   C49   1.420391 A    
C54   C55   1.398136 A    
C37   C50   1.420503 A    
C25   C29   1.403544 A    
C1    O15   1.340886 A    
N3    O25   1.301521 A    
C2    O16   1.340114 A    
C63   C64   1.398015 A    
N2    O24   1.301305 A    
C38   C42   1.402815 A    
C72   C73   1.398248 A    
C28   C32   1.403697 A    
C37   C41   1.403921 A    
O14   V2    1.981822 S    
C45   C49   1.419167 A    
C48   C52   1.419362 A    
C36   C47   1.400566 A    
O11   C7    1.332594 A    
C64   H26   1.082167 S    
O12   C8    1.330223 A    
C22   N6    1.442660 S    
C29   C30   1.492321 S    
O10   V2    1.997667 S    
C11   N3    1.440979 S    
C47   H12   1.081159 S    
N8    O35   1.300396 A    
O5    V1    1.992885 S    
C69   H30   1.081816 S    
C65   C66   1.405218 A    
C39   C43   1.402732 A    
O7    V3    1.994601 S    
O8    V4    1.994601 S    
C12   C16   1.407860 A    
C66   C67   1.397984 A    
C62   H24   1.081020 S    
C25   H5    1.084162 S    
C56   H19   1.082461 S    
C15   H3    1.082470 S    
C26   C30   1.403422 A    
C63   H25   1.082189 S    
C34   C41   1.401389 A    
C4    C34   1.488993 S    
O11   V3    1.996733 S    
C9    C13   1.410243 A    
C33   C42   1.400442 A    
C60   H22   1.082077 S    
C27   C31   1.402423 A    
C11   C15   1.407859 A    
C53   C58   1.405152 A    
C1    C35   1.488267 S    
O5    C1    1.332295 A    
C70   H31   1.082234 S    
C65   C70   1.405110 A    
C46   C50   1.419583 A    
N8    O36   1.301322 A    
C51   C52   1.426722 A    
C17   C21   1.415270 A    
O8    C4    1.332870 A    
N2    O23   1.301710 A    
C57   C58   1.398360 A    
O9    C5    1.334189 A    
N7    O34   1.299853 A    
C72   H32   1.082188 S    
N4    O28   1.301370 A    
C75   C76   1.398310 A    
C67   H28   1.082426 S    
C43   H16   1.084803 S    
C46   H9    1.081292 S    
C9    C29   1.418047 A    
O6    V2    1.992885 S    
C45   H10   1.081309 S    
C40   C71   1.483539 S    
C71   C76   1.404637 A    
C67   C68   1.398315 A    
C13   C17   1.407693 A    
C62   C63   1.397045 A    
C75   H35   1.082145 S    
C56   C57   1.397256 A    
C15   C19   1.408769 A    
C39   C52   1.420115 A    
C26   H6    1.083571 S    
O9    V1    1.997668 S    
C16   C20   1.403469 A    
C34   C45   1.400753 A    
C73   H33   1.081405 S    
C3    O13   1.340749 A    
C23   N7    1.430630 S    
C33   C46   1.400634 A    
N7    O33   1.299988 A    
N3    O26   1.301372 A    
C76   H36   1.082329 S    
C10   C14   1.408700 A    
C3    C33   1.488127 S    
C68   H29   1.082327 S    
C21   N5    1.430462 S    
C35   C48   1.401278 A    
C9    N1    1.441493 S    
C66   H27   1.083468 S    
O6    C2    1.332852 A    
C19   C23   1.418831 A    
C55   C56   1.397795 A    
C39   C65   1.482240 S    
O18   V4    1.759101 S    
C24   N8    1.443597 S    
O12   V4    1.996733 S    
N5    O29   1.300625 A    
C18   C22   1.417224 A    
C53   C54   1.405981 A    
C71   C72   1.405037 A    
C8    C18   1.479546 S    
O10   C6    1.329546 A    
O20   V2    1.759617 S    
C61   C62   1.396859 A    
C60   C61   1.398146 A    
C57   H20   1.081681 S    
C12   C32   1.416318 A    
C59   C64   1.404320 A    
C47   C51   1.419402 A    
C21   C25   1.402299 A    
C37   C53   1.483953 S    
O2    C6    1.328392 A    
N6    O32   1.301214 A    
C23   C27   1.404622 A    
C54   H17   1.083504 S    
C13   H1    1.082870 S    
N4    O27   1.301630 A    
C14   C18   1.403839 A    
C40   C51   1.420424 A    
C44   H15   1.084708 S    
C31   C32   1.491354 S    
C28   H8    1.083465 S    
C16   H4    1.084067 S    
C73   C74   1.396749 A    
N1    O22   1.301314 A    
C4    O14   1.340724 A    
C68   C69   1.396851 A    
C11   C31   1.415616 A    
C35   C44   1.400767 A    
C74   C75   1.397126 A    
C20   C24   1.417952 A    
C2    C36   1.487644 S    
O4    V2    1.985057 S    
C24   C28   1.408737 A    
C5    C19   1.499399 S    
