data_mof_unit_pretest_164.cif
_audit_creation_date              2012-12-10T17:11:29-0500
_audit_creation_method            fapswitch 2.2
_symmetry_space_group_name_H-M    P1
_symmetry_Int_Tables_number       1
_space_group_crystal_system       triclinic
_cell_length_a                    15.036098
_cell_length_b                    13.070453
_cell_length_c                    11.694535
_cell_angle_alpha                 99.923687
_cell_angle_beta                  94.268868
_cell_angle_gamma                 90.65224
_cell_volume                      2256.95716185

loop_
_atom_site_label
_atom_site_type_symbol
_atom_type_description
_atom_site_fract_x
_atom_site_fract_y
_atom_site_fract_z
_atom_type_partial_charge
C1    C     C_R   0.504069 0.299638 0.479215 0.833521
C2    C     C_R   0.498027 0.700541 0.520991 0.828794
C3    C     C_R   0.050274 0.314977 0.452839 -0.206844
C4    C     C_R   0.949975 0.684602 0.555305 -0.202808
C5    C     C_R   0.496342 0.813624 0.532272 -0.193880
C6    C     C_R   0.503030 0.186696 0.468180 -0.180210
C7    C     C_R   0.447538 0.022831 0.353926 0.180371
C8    C     C_R   0.547833 0.978473 0.646051 0.206168
C9    C     C_R   0.456206 0.130155 0.370072 -0.285472
C10   C     C_R   0.531782 0.872650 0.635583 -0.300102
C11   C     C_R   0.545129 0.135721 0.554154 0.450419
C12   C     C_R   0.463046 0.862042 0.439888 0.465990
C13   C     C_R   0.523843 0.029045 0.549925 -0.032041
C14   C     C_R   0.477026 0.970642 0.446899 -0.057665
C15   C     C_R   0.413462 0.404297 0.019746 0.331590
C16   C     C_R   0.594910 0.584348 0.978621 0.330834
C17   C     C_R   0.418974 0.416385 0.143652 0.574996
C18   C     C_R   0.583061 0.581354 0.855477 0.577087
C19   C     C_R   0.540176 0.536713 0.157117 -0.013011
C20   C     C_R   0.460826 0.461888 0.842686 -0.059209
C21   C     C_R   0.534101 0.530641 0.034179 -0.165564
C22   C     C_R   0.468257 0.466118 0.965218 -0.163164
C23   C     C_R   0.329164 0.504937 0.500893 0.803612
C24   C     C_R   0.670790 0.496425 0.499685 0.818616
C25   C     C_R   0.814124 0.584440 0.534819 -0.254351
C26   C     C_R   0.185674 0.415959 0.468665 -0.290805
C27   C     C_R   0.766982 0.491377 0.499589 -0.053069
C28   C     C_R   0.232817 0.509255 0.503148 -0.060258
C29   C     C_R   0.810821 0.397060 0.465102 0.104385
C30   C     C_R   0.188872 0.601793 0.545707 0.116020
C31   C     C_R   0.906381 0.397587 0.475741 0.091911
C32   C     C_R   0.093536 0.601421 0.534023 0.093823
C33   C     C_R   0.952984 0.496138 0.503630 -0.017887
C34   C     C_R   0.046850 0.503215 0.503778 -0.013667
C35   C     C_R   0.905895 0.588224 0.532450 0.068052
C36   C     C_R   0.094040 0.411495 0.473812 0.076330
C37   C     C_R   0.958270 0.305701 0.459520 0.176243
C38   C     C_R   0.042239 0.693493 0.551794 0.183001
Cu1   Cu    Cu3+1 0.506660 0.507730 0.615930 0.960855
Cu2   Cu    Cu3+1 0.493340 0.492270 0.384070 0.984558
H1    H     H_    0.778118 0.655487 0.559437 0.144874
H2    H     H_    0.221728 0.345087 0.443551 0.141275
H3    H     H_    0.089297 0.245393 0.435775 0.144575
H4    H     H_    0.911185 0.754394 0.572140 0.146717
H5    H     H_    0.549728 0.834758 0.708556 0.183394
H6    H     H_    0.426877 0.170619 0.303491 0.203877
H7    H     H_    0.410751 0.411845 0.788541 0.204964
H8    H     H_    0.590342 0.586596 0.211284 0.204557
N1    N     N_R   0.516670 0.519360 0.790130 -0.255648
N2    N     N_R   0.483330 0.480640 0.209870 -0.248769
O1    O     O_R   0.504720 0.354460 0.582000 -0.607480
O2    O     O_R   0.495280 0.645540 0.418000 -0.542003
O3    O     O_R   0.493480 0.341410 0.386200 -0.553590
O4    O     O_R   0.506520 0.658590 0.613800 -0.570662
O5    O     O_R   0.375880 0.506510 0.597910 -0.587774
O6    O     O_R   0.624120 0.493490 0.402090 -0.604054
O7    O     O_R   0.364640 0.493450 0.402110 -0.552040
O8    O     O_R   0.635360 0.506550 0.597890 -0.534727
O9    O     O_3   0.354552 0.332439 0.952108 -0.590223
C39   C     C_3   0.393471 0.233904 0.940822 -0.334090
H9    H     H_    0.399184 0.205617 0.025438 0.189029
H10   H     H_    0.459995 0.234767 0.905131 0.137959
H11   H     H_    0.349793 0.177796 0.878756 0.191092
O10   O     O_3   0.666611 0.637678 0.044176 -0.592095
C40   C     C_3   0.739287 0.570291 0.043375 -0.345730
H12   H     H_    0.796825 0.612768 0.096241 0.195643
H13   H     H_    0.760000 0.545087 0.953624 0.181619
H14   H     H_    0.723758 0.501373 0.083232 0.162786
C41   C     C_3   0.755315 0.301457 0.408051 -0.845576
H15   H     H_    0.782582 0.266977 0.324927 0.229883
H16   H     H_    0.751460 0.244879 0.467908 0.264675
H17   H     H_    0.685434 0.318126 0.382845 0.230363
C42   C     C_3   0.242668 0.693013 0.617405 -0.890437
H18   H     H_    0.211540 0.718922 0.700289 0.245457
H19   H     H_    0.311690 0.674099 0.643822 0.243002
H20   H     H_    0.248560 0.757844 0.569032 0.218741
C43   C     C_3   0.922781 0.197631 0.463208 -0.853475
H21   H     H_    0.882521 0.199203 0.539166 0.245705
H22   H     H_    0.884960 0.163365 0.380409 0.236300
H23   H     H_    0.977498 0.143242 0.475764 0.219560
C44   C     C_3   0.079330 0.801687 0.552752 -0.876631
H24   H     H_    0.115363 0.833423 0.637757 0.239774
H25   H     H_    0.122228 0.801229 0.479454 0.229293
H26   H     H_    0.025640 0.857121 0.539316 0.224373
O11   O     O_3   0.421655 0.802082 0.340508 -0.562629
C45   C     C_3   0.333359 0.776820 0.361154 -0.336382
H27   H     H_    0.298252 0.844791 0.406897 0.137578
H28   H     H_    0.332283 0.711490 0.410056 0.177351
H29   H     H_    0.295357 0.750161 0.276026 0.185989
O12   O     O_3   0.626282 0.175294 0.611264 -0.593630
C46   C     C_3   0.616465 0.252597 0.709972 -0.293172
H30   H     H_    0.547454 0.258389 0.738688 0.156778
H31   H     H_    0.640920 0.328522 0.693087 0.215160
H32   H     H_    0.661095 0.235988 0.783984 0.158206
C47   C     C_3   0.406281 0.969773 0.236254 -0.743844
H33   H     H_    0.396204 0.024653 0.173916 0.190261
H34   H     H_    0.451112 0.909378 0.195813 0.262542
H35   H     H_    0.339542 0.936490 0.244801 0.237026
C48   C     C_3   0.587359 0.032984 0.763338 -0.820577
H36   H     H_    0.590642 0.981312 0.829623 0.199699
H37   H     H_    0.657026 0.058383 0.756701 0.263041
H38   H     H_    0.544820 0.097983 0.797359 0.211848
O13   O     O_3   0.643889 0.629401 0.796748 -0.555725
C49   C     C_3   0.661551 0.734443 0.847287 -0.269647
H39   H     H_    0.720246 0.741589 0.911605 0.210405
H40   H     H_    0.602802 0.773398 0.886741 0.139073
H41   H     H_    0.681140 0.776518 0.778134 0.160460
O14   O     O_3   0.364329 0.357301 0.198456 -0.568345
C50   C     C_3   0.274477 0.385246 0.180223 -0.264174
H42   H     H_    0.245006 0.349880 0.092478 0.200943
H43   H     H_    0.266395 0.471080 0.195313 0.148418
H44   H     H_    0.235003 0.353419 0.242713 0.171689

loop_
_geom_bond_atom_site_label_1
_geom_bond_atom_site_label_2
_ccdc_geom_bond_type
Cu1   O1    S    
C8    C13   A    
C27   C29   A    
C42   H18   S    
C47   H33   S    
C11   O12   S    
C24   C27   S    
C6    C9    A    
C49   H40   S    
C44   H24   S    
C47   H35   S    
O11   C45   S    
C3    H3    S    
C16   C21   A    
C12   O11   S    
C39   H11   S    
C39   H10   S    
C19   C21   A    
C8    C48   S    
C50   H43   S    
C45   H28   S    
Cu1   O4    S    
O14   C50   S    
C23   O7    A    
C41   H16   S    
C1    O3    A    
C15   C22   A    
Cu1   O5    S    
C40   H13   S    
C31   C33   A    
C32   C38   A    
C7    C14   A    
C46   H30   S    
C43   H21   S    
C4    C35   A    
O9    C39   S    
C21   C22   A    
C42   H19   S    
C49   H39   S    
C44   H25   S    
C29   C41   S    
C43   H22   S    
C1    C6    S    
C24   O8    A    
C5    C12   A    
C2    O4    A    
C50   H44   S    
C25   H1    S    
Cu1   Cu2   S    
C30   C42   S    
C45   H27   S    
C4    H4    S    
Cu2   O6    S    
Cu2   O2    S    
Cu1   O8    S    
C37   C43   S    
C31   C37   A    
C39   H9    S    
C32   C34   A    
C41   H17   S    
C20   N1    A    
C46   H31   S    
C48   H36   S    
C40   H14   S    
C10   H5    S    
C33   C34   A    
C23   C28   S    
C1    O1    A    
C2    O2    A    
C25   C35   A    
C26   C36   A    
C48   H37   S    
C20   C22   A    
Cu2   O3    S    
C38   C44   S    
C42   H20   S    
C17   O14   S    
C2    C5    S    
C24   O6    A    
C6    C11   A    
C44   H26   S    
C26   H2    S    
C43   H23   S    
C15   C17   A    
Cu2   O7    S    
Cu1   N1    S    
C19   H8    S    
C15   O9    S    
C8    C10   A    
C4    C38   A    
C45   H29   S    
C17   N2    A    
C47   H34   S    
C23   O5    A    
C25   C27   A    
C7    C47   S    
C26   C28   A    
O10   C40   S    
C28   C30   A    
C12   C14   A    
C5    C10   A    
C29   C31   A    
C50   H42   S    
C46   H32   S    
C30   C32   A    
C11   C13   A    
C19   N2    A    
O12   C46   S    
C3    C36   A    
Cu2   N2    S    
C33   C35   A    
C34   C36   A    
C18   O13   S    
C41   H15   S    
C20   H7    S    
C7    C9    A    
C9    H6    S    
C48   H38   S    
C3    C37   A    
C16   C18   A    
C40   H12   S    
O13   C49   S    
C16   O10   S    
C13   C14   A    
C49   H41   S    
C18   N1    A    
