data_mof_unit_pretest_54.cif
_audit_creation_date              2012-12-11T14:04:21-0500
_audit_creation_method            fapswitch 2.2
_symmetry_space_group_name_H-M    P1
_symmetry_Int_Tables_number       1
_space_group_crystal_system       triclinic
_cell_length_a                    19.00679
_cell_length_b                    10.988802
_cell_length_c                    18.820965
_cell_angle_alpha                 89.754325
_cell_angle_beta                  90.588872
_cell_angle_gamma                 89.951899
_cell_volume                      3930.736319

loop_
_atom_site_label
_atom_site_type_symbol
_atom_type_description
_atom_site_fract_x
_atom_site_fract_y
_atom_site_fract_z
_atom_type_partial_charge
Br1   Br    Br    0.042823 0.410486 0.079796 -0.464960
Br2   Br    Br    0.958569 0.409410 0.921811 -0.464460
Br3   Br    Br    0.542821 0.910484 0.079795 -0.464960
Br4   Br    Br    0.458569 0.909410 0.921811 -0.464455
C1    C     C_R   0.238550 0.469345 0.645576 0.550384
C2    C     C_R   0.994524 0.668160 0.574167 -0.042706
C3    C     C_R   0.506955 0.157904 0.425048 -0.036975
C4    C     C_R   0.494516 0.168164 0.574171 -0.042715
C5    C     C_R   0.035806 0.874694 0.421808 -0.084665
C6    C     C_R   0.006202 0.893533 0.566097 -0.072080
C7    C     C_R   0.535800 0.374694 0.421812 -0.084672
C8    C     C_R   0.506195 0.393535 0.566101 -0.072080
C9    C     C_R   0.043572 0.985743 0.456105 -0.131299
C10   C     C_R   0.026961 0.995977 0.527655 -0.125725
C11   C     C_R   0.543563 0.485745 0.456108 -0.131295
C12   C     C_R   0.760903 0.467859 0.353761 0.550060
C13   C     C_R   0.526951 0.495980 0.527658 -0.125729
C14   C     C_R   0.004812 0.777243 0.534162 0.010056
C15   C     C_R   0.014807 0.770213 0.459715 0.009208
C16   C     C_R   0.504805 0.277245 0.534165 0.010059
C17   C     C_R   0.514801 0.270212 0.459719 0.009201
C18   C     C_R   0.983284 0.557950 0.537515 0.015226
C19   C     C_R   0.003948 0.550061 0.466484 0.023307
C20   C     C_R   0.483270 0.057955 0.537521 0.015228
C21   C     C_R   0.503933 0.050061 0.466490 0.023325
C22   C     C_R   0.958673 0.451764 0.571994 -0.069481
C23   C     C_R   0.738552 0.969340 0.645576 0.550382
C24   C     C_R   0.017837 0.433544 0.438161 -0.079290
C25   C     C_R   0.458653 0.951776 0.572002 -0.069447
C26   C     C_R   0.517816 0.933539 0.438170 -0.079271
C27   C     C_R   0.967278 0.337877 0.541096 -0.135443
C28   C     C_R   0.999077 0.328707 0.475165 -0.149456
C29   C     C_R   0.467248 0.837886 0.541105 -0.135404
C30   C     C_R   0.499047 0.828707 0.475175 -0.149454
C31   C     C_2   0.255001 0.924862 0.917811 -0.100155
C32   C     C_2   0.744821 0.925958 0.082322 -0.099622
C33   C     C_2   0.755002 0.424858 0.917812 -0.100150
C34   C     C_R   0.260902 0.967860 0.353760 0.550072
C35   C     C_2   0.244819 0.425951 0.082321 -0.099615
C36   C     C_2   0.254147 0.937223 0.073639 -0.082472
C37   C     C_2   0.745623 0.937672 0.926679 -0.082505
C38   C     C_2   0.754146 0.437223 0.073639 -0.082463
C39   C     C_2   0.245624 0.437671 0.926679 -0.082497
C40   C     C_R   0.226896 0.874485 0.647559 0.554786
C41   C     C_R   0.772687 0.875370 0.351887 0.555188
C42   C     C_R   0.726897 0.374490 0.647561 0.554795
C43   C     C_R   0.272687 0.375369 0.351888 0.555187
C44   C     C_2   0.227202 0.022505 0.029398 -0.141645
C45   C     C_2   0.290762 0.847544 0.538240 -0.161458
C46   C     C_2   0.772289 0.023401 0.970363 -0.141398
C47   C     C_2   0.727216 0.522515 0.029397 -0.141633
C48   C     C_2   0.272261 0.523417 0.970366 -0.141390
C49   C     C_2   0.215667 0.002482 0.954162 -0.164234
C50   C     C_2   0.784020 0.003636 0.045657 -0.164989
C51   C     C_2   0.715674 0.502487 0.954162 -0.164233
C52   C     C_2   0.284003 0.503651 0.045658 -0.164992
C53   C     C_2   0.002030 0.661171 0.921899 -0.106598
C54   C     C_2   0.997911 0.661711 0.078013 -0.106570
C55   C     C_2   0.502029 0.161171 0.921898 -0.106600
C56   C     C_2   0.703423 0.860148 0.459196 -0.165633
C57   C     C_2   0.497911 0.161711 0.078013 -0.106571
C58   C     C_2   0.008303 0.561330 0.038602 0.166581
C59   C     C_2   0.992265 0.560908 0.961963 0.166372
C60   C     C_2   0.508303 0.061330 0.038601 0.166576
C61   C     C_2   0.492264 0.060907 0.961962 0.166368
C62   C     C_R   0.027026 0.656204 0.646042 0.528214
C63   C     C_R   0.973435 0.654028 0.353546 0.528505
C64   C     C_R   0.527025 0.156205 0.646043 0.528212
C65   C     C_R   0.473434 0.154028 0.353547 0.528510
C66   C     C_R   0.238177 0.470025 0.852498 0.550411
C67   C     C_2   0.790787 0.347613 0.538254 -0.161489
C68   C     C_R   0.761786 0.470079 0.147598 0.550057
C69   C     C_R   0.738176 0.970030 0.852500 0.550421
C70   C     C_R   0.261787 0.970081 0.147597 0.550060
C71   C     C_R   0.228492 0.874832 0.851959 0.556488
C72   C     C_R   0.771486 0.875168 0.148103 0.556152
C73   C     C_R   0.728492 0.374831 0.851959 0.556490
C74   C     C_R   0.271487 0.375167 0.148102 0.556152
C75   C     C_R   0.028468 0.652166 0.850210 0.569531
C76   C     C_R   0.971552 0.652394 0.149773 0.568600
C77   C     C_R   0.528468 0.152166 0.850209 0.569530
C78   C     C_2   0.203425 0.360144 0.459197 -0.165628
C79   C     C_R   0.471552 0.152394 0.149773 0.568600
C80   C     C_2   0.248347 0.917248 0.577854 -0.110375
C81   C     C_2   0.750163 0.922227 0.420185 -0.110191
C82   C     C_2   0.748349 0.417276 0.577862 -0.110387
C83   C     C_2   0.250163 0.422226 0.420185 -0.110190
C84   C     C_2   0.247490 0.910172 0.421751 -0.118737
C85   C     C_2   0.749834 0.915090 0.576291 -0.115455
C86   C     C_2   0.747504 0.410169 0.421755 -0.118741
C87   C     C_2   0.249834 0.415092 0.576291 -0.115462
C88   C     C_2   0.300929 0.871900 0.462774 -0.161228
C89   C     C_R   0.006962 0.657906 0.425044 -0.036973
C90   C     C_2   0.694649 0.885162 0.534813 -0.161495
C91   C     C_2   0.800958 0.371998 0.462792 -0.161235
C92   C     C_2   0.194650 0.385159 0.534814 -0.161495
Cr1   Cr    Cr6+3 0.113970 0.508630 0.747920 1.061982
Cr2   Cr    Cr6+3 0.887700 0.820070 0.250200 1.034099
Cr3   Cr    Cr6+3 0.612300 0.320070 0.749800 1.027398
Cr4   Cr    Cr6+3 0.387700 0.320070 0.250200 1.034100
Cr5   Cr    Cr6+3 0.886030 0.508630 0.252080 1.060826
Cr6   Cr    Cr6+3 0.613970 0.008630 0.747920 1.061982
Cr7   Cr    Cr6+3 0.386030 0.008630 0.252080 1.060827
Cr8   Cr    Cr6+3 0.269200 0.666740 0.749850 1.039104
Cr9   Cr    Cr6+3 0.730800 0.666740 0.250150 1.039174
Cr10  Cr    Cr6+3 0.769200 0.166740 0.749850 1.039105
Cr11  Cr    Cr6+3 0.230800 0.166740 0.250150 1.039170
Cr12  Cr    Cr6+3 0.112300 0.820070 0.749800 1.027394
H1    H     H_    0.353386 0.861563 0.441469 0.173233
H2    H     H_    0.726030 0.850725 0.945541 0.102091
H3    H     H_    0.774046 0.350386 0.055290 0.102609
H4    H     H_    0.226068 0.350709 0.945536 0.102079
H5    H     H_    0.302306 0.885222 0.940956 0.153747
H6    H     H_    0.697509 0.886525 0.059372 0.154954
H7    H     H_    0.802304 0.385210 0.940959 0.153748
H8    H     H_    0.197512 0.386503 0.059368 0.154961
H9    H     H_    0.986798 0.748942 0.053432 0.071651
H10   H     H_    0.012599 0.748636 0.945962 0.071945
H11   H     H_    0.486798 0.248942 0.053432 0.071654
H12   H     H_    0.641699 0.881062 0.555889 0.170338
H13   H     H_    0.512598 0.248636 0.945962 0.071948
H14   H     H_    0.317914 0.769270 0.560852 0.155502
H15   H     H_    0.672256 0.787037 0.436310 0.151066
H16   H     H_    0.817959 0.269360 0.560867 0.155511
H17   H     H_    0.172259 0.287031 0.436311 0.151064
H18   H     H_    0.194620 0.916024 0.442908 0.118565
H19   H     H_    0.802876 0.915892 0.555230 0.110063
H20   H     H_    0.694625 0.415933 0.442900 0.118556
H21   H     H_    0.302876 0.415897 0.555230 0.110062
H22   H     H_    0.222104 0.996555 0.555219 0.112985
H23   H     H_    0.853434 0.361794 0.441506 0.173292
H24   H     H_    0.779302 0.997950 0.442954 0.113187
H25   H     H_    0.722088 0.496563 0.555222 0.113012
H26   H     H_    0.279301 0.497950 0.442954 0.113174
H27   H     H_    0.062432 0.063671 0.426726 0.109018
H28   H     H_    0.031011 0.083154 0.553792 0.108994
H29   H     H_    0.562421 0.563675 0.426729 0.109022
H30   H     H_    0.530998 0.583158 0.553794 0.108994
H31   H     H_    0.049442 0.869694 0.366175 0.126123
H32   H     H_    0.990693 0.906864 0.620606 0.134052
H33   H     H_    0.549437 0.369694 0.366179 0.126123
H34   H     H_    0.141701 0.381057 0.555889 0.170346
H35   H     H_    0.490686 0.406865 0.620609 0.134049
H36   H     H_    0.042583 0.423154 0.386968 0.139043
H37   H     H_    0.935020 0.456513 0.624042 0.135425
H38   H     H_    0.542564 0.923141 0.386978 0.139037
H39   H     H_    0.435002 0.956532 0.624052 0.135413
H40   H     H_    0.950342 0.256821 0.568878 0.106941
H41   H     H_    0.006967 0.240827 0.451435 0.107812
H42   H     H_    0.450308 0.756834 0.568887 0.106938
H43   H     H_    0.506933 0.740824 0.451446 0.107797
H44   H     H_    0.208169 0.108948 0.049587 0.167043
H45   H     H_    0.170408 0.047244 0.929815 0.170819
H46   H     H_    0.791036 0.109917 0.949653 0.167141
H47   H     H_    0.708202 0.608969 0.049584 0.167033
H48   H     H_    0.290977 0.609945 0.949659 0.167126
H49   H     H_    0.829335 0.048214 0.069701 0.170643
H50   H     H_    0.670419 0.547257 0.929814 0.170817
H51   H     H_    0.329312 0.548245 0.069701 0.170637
H52   H     H_    0.274067 0.850400 0.055287 0.102617
O1    O     O_R   0.043230 0.549300 0.667990 -0.515479
O2    O     O_R   0.832470 0.905110 0.169660 -0.510944
O3    O     O_R   0.667530 0.405110 0.830340 -0.511016
O4    O     O_R   0.332470 0.405110 0.169660 -0.510937
O5    O     O_R   0.054010 0.748440 0.822860 -0.507507
O6    O     O_R   0.945990 0.748440 0.177140 -0.507950
O7    O     O_R   0.554010 0.248440 0.822860 -0.507507
O8    O     O_R   0.445990 0.248440 0.177140 -0.507948
O9    O     O_3   0.165160 0.665150 0.749190 -0.258461
O10   O     O_3   0.834840 0.665150 0.250810 -0.258634
O11   O     O_3   0.665160 0.165150 0.749190 -0.258459
O12   O     O_R   0.956770 0.549300 0.332010 -0.521224
O13   O     O_3   0.334840 0.165150 0.250810 -0.258633
O14   O     O_R   0.178620 0.457600 0.674100 -0.496000
O15   O     O_R   0.821380 0.457600 0.325900 -0.494787
O16   O     O_R   0.678620 0.957600 0.674100 -0.495999
O17   O     O_R   0.321380 0.957600 0.325900 -0.494778
O18   O     O_R   0.284680 0.542100 0.669460 -0.522343
O19   O     O_R   0.715320 0.542100 0.330540 -0.524499
O20   O     O_R   0.784680 0.042100 0.669460 -0.522330
O21   O     O_R   0.215320 0.042100 0.330540 -0.524513
O22   O     O_R   0.262860 0.790390 0.676650 -0.500819
O23   O     O_R   0.543230 0.049300 0.667990 -0.515478
O24   O     O_R   0.737140 0.790390 0.323350 -0.499098
O25   O     O_R   0.762860 0.290390 0.676650 -0.500814
O26   O     O_R   0.237140 0.290390 0.323350 -0.499098
O27   O     O_R   0.167460 0.907030 0.670940 -0.510839
O28   O     O_R   0.832540 0.907030 0.329060 -0.508524
O29   O     O_R   0.667460 0.407030 0.670940 -0.510843
O30   O     O_R   0.332540 0.407030 0.329060 -0.508529
O31   O     O_R   0.053950 0.750220 0.675100 -0.507919
O32   O     O_R   0.946050 0.750220 0.324900 -0.498628
O33   O     O_R   0.553950 0.250220 0.675100 -0.507916
O34   O     O_R   0.456770 0.049300 0.332010 -0.521215
O35   O     O_R   0.446050 0.250220 0.324900 -0.498629
O36   O     O_R   0.043300 0.547370 0.827390 -0.451545
O37   O     O_R   0.956700 0.547370 0.172610 -0.451549
O38   O     O_R   0.543300 0.047370 0.827390 -0.451548
O39   O     O_R   0.456700 0.047370 0.172610 -0.451550
O40   O     O_R   0.178690 0.455820 0.821860 -0.482594
O41   O     O_R   0.821310 0.455820 0.178140 -0.483233
O42   O     O_R   0.678690 0.955820 0.821860 -0.482600
O43   O     O_R   0.321310 0.955820 0.178140 -0.483238
O44   O     O_R   0.284750 0.540170 0.828860 -0.510285
O45   O     O_R   0.262920 0.788600 0.824420 -0.490608
O46   O     O_R   0.715250 0.540170 0.171140 -0.510841
O47   O     O_R   0.784750 0.040170 0.828860 -0.510296
O48   O     O_R   0.215250 0.040170 0.171140 -0.510846
O49   O     O_R   0.737080 0.788600 0.175580 -0.490136
O50   O     O_R   0.762920 0.288600 0.824420 -0.490611
O51   O     O_R   0.237080 0.288600 0.175580 -0.490138
O52   O     O_R   0.167530 0.905110 0.830340 -0.511018

loop_
_geom_bond_atom_site_label_1
_geom_bond_atom_site_label_2
_ccdc_geom_bond_type
C72   O49   A    
C55   H13   S    
Cr8   O22   S    
Cr12  O5    S    
C64   O23   A    
C54   C58   D    
C4    C20   A    
C31   C49   D    
Cr6   O11   S    
Cr10  O11   S    
C53   C75   S    
Cr12  O27   S    
C72   O2    A    
C83   H26   S    
Cr7   O13   S    
C33   C51   D    
C32   H6    S    
Br1   C58   S    
Cr9   O49   S    
C86   C91   D    
C70   O48   A    
Br3   C60   S    
C49   H45   S    
Cr11  O26   S    
C31   C71   S    
C2    C62   S    
C46   C50   S    
C34   O21   A    
Cr11  O21   S    
Cr6   O23   S    
Cr8   O44   S    
C45   C80   D    
C46   H46   S    
C52   H51   S    
C29   H42   S    
Cr6   O38   S    
C81   H24   S    
C74   O4    A    
Cr5   O37   S    
C39   C48   D    
C12   C86   S    
C57   H11   S    
C70   O43   A    
C45   H14   S    
Cr6   O16   S    
C78   C83   D    
C2    C18   A    
C25   C29   A    
C65   O35   A    
Cr1   O9    S    
Cr5   O12   S    
C36   C44   D    
C14   C15   A    
C1    O14   A    
C76   O6    A    
C85   C90   D    
C5    C9    A    
C20   C25   A    
Cr2   O28   S    
C32   C72   S    
Cr2   O2    S    
C87   C92   D    
C90   H12   S    
C23   C85   S    
C5    C15   A    
C51   H50   S    
Cr8   O18   S    
C28   H41   S    
C84   C88   D    
C8    C13   A    
C84   H18   S    
Cr12  O31   S    
C26   H38   S    
C13   H30   S    
C24   H36   S    
Cr7   O34   S    
C15   C89   A    
C12   O19   A    
C54   C76   S    
C38   C47   D    
C69   O47   A    
C22   C27   A    
Cr9   O24   S    
C34   O17   A    
Cr12  O9    S    
C91   H23   S    
C9    H27   S    
Cr1   O40   S    
C6    H32   S    
Cr9   O19   S    
Cr10  O20   S    
Cr12  O52   S    
C92   H34   S    
C53   C59   D    
Cr3   O7    S    
C66   O44   A    
C44   C49   S    
C2    C14   A    
C71   O52   A    
C78   C92   S    
Cr9   O10   S    
C26   C30   A    
C73   O3    A    
C35   C74   S    
C67   H16   S    
Cr9   O46   S    
C20   C21   A    
Cr2   O6    S    
Cr2   O32   S    
C6    C10   A    
C77   O38   A    
Cr3   O29   S    
C63   O32   A    
C68   O46   A    
Cr11  O13   S    
Cr8   O45   S    
C33   C73   S    
C7    C17   A    
C54   H9    S    
C75   O5    A    
C75   O36   A    
C19   C89   A    
C62   O1    A    
C34   C84   S    
Cr7   O17   S    
C43   C83   S    
C33   H7    S    
C57   C60   D    
C41   C81   S    
C38   H3    S    
C78   H17   S    
C25   H39   S    
C58   C59   S    
C67   C82   D    
C82   H25   S    
C35   C52   D    
C24   C28   A    
C56   C81   D    
C47   H47   S    
C62   O31   A    
C8    C16   A    
C38   C68   S    
C29   C30   A    
C77   O7    A    
Cr5   O10   S    
Cr4   O4    S    
Cr7   O39   S    
C19   C24   A    
C23   O20   A    
C43   O26   A    
C7    H33   S    
Cr11  O48   S    
C64   O33   A    
C73   O50   A    
Cr3   O3    S    
C27   H40   S    
C12   O15   A    
C4    C16   A    
C4    C64   S    
C39   C66   S    
C7    C11   A    
C37   H2    S    
C44   H44   S    
C57   C79   S    
Cr5   O15   S    
C39   H4    S    
C42   O29   A    
C79   O39   A    
Cr11  O51   S    
C40   O22   A    
C37   C46   D    
Cr10  O47   S    
Br2   C59   S    
Cr1   O36   S    
C41   O24   A    
C85   H19   S    
Cr4   O35   S    
C21   C26   A    
C11   C13   A    
C66   O40   A    
Cr1   O14   S    
C68   O41   A    
C36   H52   S    
C27   C28   A    
Cr4   O30   S    
C55   C77   S    
C22   H37   S    
C40   C80   S    
C69   O42   A    
C23   O16   A    
C3    C65   S    
C30   H43   S    
C41   O28   A    
C87   H21   S    
C63   O12   A    
C48   H48   S    
C79   O8    A    
Cr3   O33   S    
Cr1   O1    S    
C3    C21   A    
C8    H35   S    
Cr4   O8    S    
C60   C61   S    
C43   O30   A    
Cr6   O42   S    
Cr5   O41   S    
C55   C61   D    
C50   H49   S    
C3    C17   A    
C5    H31   S    
Br4   C61   S    
C10   H28   S    
C6    C14   A    
C76   O37   A    
C80   H22   S    
C65   O34   A    
Cr10  O25   S    
C36   C70   S    
C31   H5    S    
C47   C51   S    
C42   O25   A    
C88   H1    S    
Cr7   O43   S    
C1    O18   A    
C32   C50   D    
C40   O27   A    
C37   C69   S    
Cr2   O10   S    
C71   O45   A    
C56   H15   S    
C67   C91   S    
C16   C17   A    
C1    C87   S    
C35   H8    S    
C18   C22   A    
Cr4   O13   S    
C63   C89   S    
C86   H20   S    
C18   C19   A    
Cr8   O9    S    
C45   C88   S    
C11   H29   S    
C9    C10   A    
C74   O51   A    
C48   C52   S    
Cr3   O11   S    
C56   C90   S    
C53   H10   S    
C42   C82   S    
Cr10  O50   S    
