data_mof_unit_pretest_1286.cif
_audit_creation_date              2012-12-10T17:46:58-0500
_audit_creation_method            fapswitch 2.2
_symmetry_space_group_name_H-M    P1
_symmetry_Int_Tables_number       1
_space_group_crystal_system       triclinic
_cell_length_a                    9.994356
_cell_length_b                    10.633497
_cell_length_c                    13.59851
_cell_angle_alpha                 93.186616
_cell_angle_beta                  82.192745
_cell_angle_gamma                 89.919051
_cell_volume                      1429.51258262

loop_
_atom_site_label
_atom_site_type_symbol
_atom_type_description
_atom_site_fract_x
_atom_site_fract_y
_atom_site_fract_z
_atom_type_partial_charge
C1    C     C_R   0.500533 0.738908 0.496693 0.867562
C2    C     C_R   0.558469 0.940161 0.563222 -0.225411
C3    C     C_R   0.558622 0.068636 0.563273 -0.205749
C4    C     C_R   0.474997 0.499832 0.685597 0.898074
C5    C     C_R   0.502415 0.127738 0.489695 -0.093421
C6    C     C_R   0.831990 0.680703 0.615463 -0.134962
C7    C     C_R   0.883408 0.784209 0.661258 -0.286183
C8    C     C_R   0.019603 0.792548 0.662503 -0.279214
C9    C     C_R   0.108135 0.692968 0.621378 0.570600
C10   C     C_R   0.059391 0.593515 0.558143 0.046484
C11   C     C_R   0.915177 0.590857 0.556982 0.115989
C12   C     C_1   0.455244 0.501435 0.789963 -0.181182
C13   C     C_R   0.939381 0.413198 0.445335 -0.102457
C14   C     C_R   0.081726 0.413087 0.445418 -0.108312
C15   C     C_R   0.500697 0.260667 0.496789 0.848721
C16   C     C_R   0.525044 0.499420 0.314371 0.851899
C17   C     C_1   0.544658 0.500586 0.210129 -0.183138
C18   C     C_2   0.558341 0.502985 0.017988 -0.165109
C19   C     C_2   0.441206 0.504507 0.982358 -0.173029
C20   C     C_1   0.443712 0.503053 0.878176 0.004994
C21   C     C_1   0.555943 0.501791 0.122044 0.006144
C22   C     C_3   0.278332 0.784734 0.708640 -0.326196
C23   C     C_R   0.400143 0.857553 0.333049 -0.178470
C24   C     C_R   0.350976 0.917957 0.256693 -0.129643
C25   C     C_R   0.351533 0.048769 0.256568 -0.141860
C26   C     C_R   0.401237 0.119650 0.332811 -0.190437
C27   C     C_R   0.449627 0.059922 0.411717 0.098555
C28   C     C_R   0.449227 0.928010 0.411786 0.090866
C29   C     C_R   0.502015 0.870889 0.489684 -0.094174
H1    H     H_    0.344972 0.505672 0.030541 0.158128
H2    H     H_    0.314745 0.095465 0.196631 0.135817
H3    H     H_    0.403253 0.220811 0.328197 0.141873
H4    H     H_    0.599816 0.122429 0.622137 0.153481
H5    H     H_    0.894981 0.341838 0.400339 0.144279
H6    H     H_    0.217772 0.795725 0.783495 0.160627
H7    H     H_    0.279576 0.872459 0.667643 0.163380
H8    H     H_    0.384003 0.765995 0.720410 0.164532
H9    H     H_    0.725550 0.674396 0.629037 0.211148
H10   H     H_    0.816198 0.855456 0.701201 0.166343
H11   H     H_    0.051544 0.873470 0.704613 0.152563
H12   H     H_    0.143115 0.341685 0.400562 0.142797
H13   H     H_    0.654561 0.501478 0.969772 0.161015
H14   H     H_    0.599180 0.894541 0.622192 0.135055
H15   H     H_    0.401092 0.755849 0.328654 0.148267
H16   H     H_    0.313760 0.863010 0.196851 0.137729
N1    N     N_R   0.857120 0.501200 0.500900 -0.107628
N2    N     N_R   0.142720 0.501280 0.500940 -0.102101
O1    O     O_R   0.385310 0.683220 0.500000 -0.567799
O2    O     O_R   0.614640 0.683250 0.500010 -0.636352
O3    O     O_R   0.368830 0.499960 0.640340 -0.526107
O4    O     O_R   0.598160 0.499980 0.640350 -0.643827
O5    O     O_R   0.385360 0.316750 0.499990 -0.623019
O6    O     O_R   0.614690 0.316780 0.500000 -0.611741
O7    O     O_R   0.401840 0.500020 0.359650 -0.626768
O8    O     O_R   0.631170 0.500040 0.359660 -0.600379
O9    O     O_3   0.233135 0.680876 0.652729 -0.554608
Zn1   Zn    Zn3+2 0.346870 0.499980 0.499990 0.981062
Zn2   Zn    Zn3+2 0.653130 0.500020 0.500010 0.941290

loop_
_geom_bond_atom_site_label_1
_geom_bond_atom_site_label_2
_ccdc_geom_bond_type
C25   H2    S    
C23   C24   A    
C6    H9    S    
C1    O1    A    
C26   H3    S    
C6    C7    A    
C22   H8    S    
N2    Zn1   S    
C18   C21   S    
C22   H7    S    
C9    C10   A    
C19   C20   S    
O2    Zn2   S    
C2    H14   S    
O6    Zn2   S    
C12   C20   T    
C1    C29   S    
C2    C3    A    
C16   O8    A    
C13   H5    S    
O1    Zn1   S    
C9    O9    S    
C5    C27   A    
C15   O5    A    
N1    Zn2   S    
C22   H6    S    
C19   H1    S    
C6    C11   A    
C26   C27   A    
C14   N2    A    
C2    C29   A    
C24   H16   S    
C15   O6    A    
C28   C29   A    
C14   H12   S    
C13   N1    A    
C16   O7    A    
C5    C15   S    
C23   C28   A    
C10   C11   A    
C3    H4    S    
C4    O4    A    
C10   N2    A    
C24   C25   A    
C18   C19   D    
O5    Zn1   S    
O8    Zn2   S    
C27   C28   A    
O4    Zn2   S    
C7    C8    A    
C7    H10   S    
C16   C17   S    
C11   N1    A    
C22   O9    S    
C8    H11   S    
C18   H13   S    
C4    C12   S    
C25   C26   A    
C13   C14   A    
O3    Zn1   S    
C1    O2    A    
C17   C21   T    
C23   H15   S    
C4    O3    A    
C8    C9    A    
C3    C5    A    
O7    Zn1   S    
