data_mof_unit_pretest_229.cif
_audit_creation_date              2012-12-10T18:32:00-0500
_audit_creation_method            fapswitch 2.2
_symmetry_space_group_name_H-M    P1
_symmetry_Int_Tables_number       1
_space_group_crystal_system       triclinic
_cell_length_a                    10.682697
_cell_length_b                    15.015019
_cell_length_c                    15.404988
_cell_angle_alpha                 82.595026
_cell_angle_beta                  90.335136
_cell_angle_gamma                 103.872892
_cell_volume                      2378.08325262

loop_
_atom_site_label
_atom_site_type_symbol
_atom_type_description
_atom_site_fract_x
_atom_site_fract_y
_atom_site_fract_z
_atom_type_partial_charge
C1    C     C_R   0.474587 0.442414 0.662103 0.842903
C2    C     C_R   0.510430 0.440280 0.901279 0.042819
C3    C     C_R   0.484403 0.343884 0.931606 0.090744
C4    C     C_R   0.742101 0.500595 0.499359 0.848514
C5    C     C_R   0.570354 0.504150 0.956865 0.057264
C6    C     C_R   0.561599 0.476214 0.047010 0.029259
C7    C     C_R   0.533522 0.380762 0.078237 -0.257465
C8    C     C_R   0.504386 0.313726 0.020447 0.092437
C9    C     C_R   0.640149 0.594361 0.925069 -0.208621
C10   C     C_R   0.682730 0.659744 0.981861 -0.249077
C11   C     C_R   0.651870 0.637168 0.071788 0.116755
C12   C     C_3   0.121267 0.498345 0.496220 0.135633
C13   C     C_R   0.584427 0.545185 0.103049 0.090346
C14   C     C_R   0.683169 0.703638 0.131263 0.002694
C15   C     C_R   0.634886 0.679299 0.218042 -0.254418
C16   C     C_R   0.522392 0.557661 0.337791 0.864838
C17   C     C_R   0.533070 0.525062 0.187799 -0.268475
C18   C     C_R   0.707866 0.838681 0.636258 0.015437
C19   C     C_R   0.667797 0.750221 0.611402 -0.013732
C20   C     C_R   0.515180 0.795597 0.514001 -0.080430
C21   C     C_R   0.553197 0.887694 0.531959 -0.017466
C22   C     C_R   0.646700 0.907695 0.596749 0.087847
C23   C     C_3   0.098960 0.584384 0.435296 -0.448427
C24   C     C_R   0.501275 0.959290 0.487307 0.070122
C25   C     C_R   0.529574 0.049530 0.515342 0.024957
C26   C     C_R   0.625014 0.067550 0.581564 0.093293
C27   C     C_R   0.679439 0.996569 0.619977 -0.265333
C28   C     C_R   0.258613 0.500708 0.495760 0.810569
C29   C     C_R   0.426533 0.943389 0.412237 -0.236336
C30   C     C_R   0.376679 0.011371 0.366464 -0.222552
C31   C     C_R   0.395840 0.097379 0.394478 0.202561
C32   C     C_R   0.465391 0.116372 0.471723 -0.004469
C33   C     C_R   0.346160 0.165209 0.344839 -0.333589
C34   C     C_3   0.076708 0.508917 0.591338 -0.076844
C35   C     C_R   0.368786 0.252505 0.370298 -0.017221
C36   C     C_R   0.463761 0.201300 0.500769 -0.086538
C37   C     C_3   0.895666 0.409401 0.468051 -0.411767
C38   C     C_3   0.037065 0.405560 0.467406 -0.027109
C39   C     C_3   0.954817 0.583096 0.433948 -0.411273
C40   C     C_3   0.931173 0.507655 0.591985 -0.417034
C41   C     C_3   0.878816 0.500618 0.498601 0.120701
C42   C     C_3   0.490748 0.211143 0.052049 -0.430520
C43   C     C_3   0.548191 0.188437 0.141496 -0.341658
C44   C     C_3   0.540425 0.084992 0.161610 -0.900955
C45   C     C_R   0.454618 0.407584 0.755456 -0.101253
C46   C     C_3   0.411682 0.554925 0.801135 -0.385885
C47   C     C_3   0.311695 0.556478 0.872121 -0.353365
C48   C     C_3   0.250581 0.638536 0.850354 -0.907654
C49   C     C_R   0.773020 0.795738 0.107146 0.114553
C50   C     C_R   0.738379 0.876868 0.123181 -0.160032
C51   C     C_R   0.825475 0.963054 0.103217 -0.138910
C52   C     C_R   0.947423 0.968991 0.067255 -0.109253
C53   C     C_R   0.983128 0.888702 0.051864 -0.150491
C54   C     C_R   0.896902 0.802373 0.072320 -0.174503
C55   C     C_3   0.815034 0.860646 0.702242 -0.440956
C56   C     C_R   0.558859 0.590293 0.245793 -0.081328
C57   C     C_3   0.881893 0.782623 0.733513 -0.362723
C58   C     C_3   0.986663 0.813137 0.798721 -0.882510
C59   C     C_3   0.684789 0.159526 0.613489 -0.433774
C60   C     C_3   0.627530 0.161669 0.704588 -0.325102
C61   C     C_3   0.702127 0.243567 0.747030 -0.914131
C62   C     C_3   0.071725 0.367704 0.382639 -0.398225
C63   C     C_3   0.102907 0.437251 0.299065 -0.325394
C64   C     C_3   0.108311 0.388525 0.218530 -0.912091
C65   C     C_3   0.120573 0.446939 0.669630 -0.416405
C66   C     C_3   0.025911 0.355633 0.705673 -0.352653
C67   C     C_R   0.438305 0.280775 0.871833 -0.243438
C68   C     C_3   0.095634 0.289223 0.757634 -0.891322
C69   C     C_R   0.431235 0.312663 0.783653 -0.214673
C70   C     C_R   0.468341 0.469468 0.817823 0.043987
H1    H     H_    0.854657 0.403836 0.401718 0.188407
H2    H     H_    0.840545 0.348733 0.512659 0.152746
H3    H     H_    0.542157 0.359148 0.147009 0.146952
H4    H     H_    0.665572 0.613454 0.856437 0.136954
H5    H     H_    0.750274 0.012666 0.669660 0.145509
H6    H     H_    0.488374 0.215954 0.565472 0.146139
H7    H     H_    0.340146 0.307733 0.329223 0.129361
H8    H     H_    0.322408 0.996276 0.308224 0.145011
H9    H     H_    0.709810 0.694335 0.638018 0.135152
H10   H     H_    0.438461 0.771555 0.470853 0.130149
H11   H     H_    0.046577 0.349791 0.519822 0.144585
H12   H     H_    0.127324 0.580449 0.602778 0.147349
H13   H     H_    0.410152 0.879994 0.383604 0.138249
H14   H     H_    0.295090 0.151915 0.285038 0.145068
H15   H     H_    0.918631 0.577302 0.366502 0.164091
H16   H     H_    0.137959 0.590488 0.368070 0.158290
H17   H     H_    0.917989 0.572326 0.614860 0.156425
H18   H     H_    0.872605 0.449849 0.637515 0.158812
H19   H     H_    0.438213 0.045118 0.164648 0.256990
H20   H     H_    0.592783 0.061948 0.110100 0.254198
H21   H     H_    0.584732 0.070415 0.225626 0.261948
H22   H     H_    0.650975 0.226997 0.141676 0.225629
H23   H     H_    0.941327 0.649643 0.452146 0.186767
H24   H     H_    0.494087 0.208383 0.193882 0.225541
H25   H     H_    0.386850 0.174917 0.053360 0.195162
H26   H     H_    0.542379 0.182786 0.003807 0.203224
H27   H     H_    0.325607 0.704596 0.846599 0.269484
H28   H     H_    0.200936 0.635047 0.786904 0.253639
H29   H     H_    0.178567 0.637468 0.902407 0.251312
H30   H     H_    0.234687 0.491244 0.877747 0.221262
H31   H     H_    0.357049 0.562062 0.936738 0.239890
H32   H     H_    0.487466 0.620288 0.793235 0.203971
H33   H     H_    0.359313 0.554756 0.738915 0.213847
H34   H     H_    0.151975 0.649201 0.459936 0.177041
H35   H     H_    0.644179 0.873391 0.151020 0.128978
H36   H     H_    0.798927 0.025355 0.115933 0.129805
H37   H     H_    0.014526 0.035770 0.051804 0.119442
H38   H     H_    0.077949 0.893278 0.024579 0.129414
H39   H     H_    0.926869 0.740640 0.061369 0.133321
H40   H     H_    0.062043 0.873130 0.767713 0.261439
H41   H     H_    0.944341 0.832611 0.857090 0.262865
H42   H     H_    0.032451 0.755275 0.820445 0.251470
H43   H     H_    0.810410 0.721716 0.766399 0.210688
H44   H     H_    0.926759 0.762264 0.676579 0.219350
H45   H     H_    0.469448 0.458072 0.208969 0.159262
H46   H     H_    0.891057 0.920532 0.671509 0.209932
H47   H     H_    0.773561 0.880892 0.760611 0.205976
H48   H     H_    0.800491 0.234712 0.760169 0.260410
H49   H     H_    0.705409 0.309606 0.704274 0.266078
H50   H     H_    0.656480 0.244757 0.811068 0.264466
H51   H     H_    0.524665 0.163209 0.700377 0.206422
H52   H     H_    0.631460 0.097807 0.748829 0.219267
H53   H     H_    0.790611 0.166624 0.619598 0.194096
H54   H     H_    0.682933 0.220482 0.565870 0.190693
H55   H     H_    0.182417 0.347561 0.225877 0.253537
H56   H     H_    0.661088 0.728473 0.264676 0.164760
H57   H     H_    0.012958 0.341898 0.208714 0.261658
H58   H     H_    0.133958 0.440880 0.159579 0.254125
H59   H     H_    0.027784 0.477134 0.288893 0.226466
H60   H     H_    0.199113 0.484586 0.304587 0.214516
H61   H     H_    0.152147 0.333352 0.394555 0.219484
H62   H     H_    0.989274 0.310120 0.369747 0.194738
H63   H     H_    0.163001 0.268792 0.713772 0.264008
H64   H     H_    0.150421 0.322437 0.811278 0.273154
H65   H     H_    0.024554 0.225809 0.786773 0.242689
H66   H     H_    0.955670 0.371242 0.750824 0.223398
H67   H     H_    0.733341 0.728762 0.954008 0.163446
H68   H     H_    0.972040 0.320638 0.653099 0.222097
H69   H     H_    0.213830 0.432675 0.653149 0.205745
H70   H     H_    0.140198 0.488019 0.725284 0.195564
H71   H     H_    0.413832 0.206745 0.891065 0.141095
H72   H     H_    0.407254 0.263068 0.737513 0.163896
N1    N     N_R   0.573860 0.731700 0.552730 -0.116409
N2    N     N_R   0.426060 0.268290 0.447230 -0.097160
O1    O     O_R   0.462770 0.383110 0.605620 -0.614654
O2    O     O_R   0.510160 0.531900 0.639510 -0.625414
O3    O     O_R   0.661510 0.425600 0.483070 -0.620622
O4    O     O_R   0.708900 0.574390 0.516960 -0.626793
O5    O     O_R   0.489840 0.468100 0.360490 -0.622581
O6    O     O_R   0.537230 0.616890 0.394380 -0.612781
O7    O     O_R   0.291100 0.425610 0.483040 -0.626440
O8    O     O_R   0.338490 0.574400 0.516930 -0.633167
Zn1   Zn    Zn3+2 0.468350 0.400660 0.477370 0.921462
Zn2   Zn    Zn3+2 0.531650 0.599340 0.522630 0.916804

loop_
_geom_bond_atom_site_label_1
_geom_bond_atom_site_label_2
_ccdc_geom_bond_type
C66   C68   S    
C42   C43   S    
C47   H31   S    
C61   H49   S    
C1    O1    A    
C7    C8    A    
C39   C41   S    
C53   C54   A    
C48   H27   S    
C23   H16   S    
C12   C23   S    
C26   C27   A    
C62   C63   S    
C12   C28   S    
C58   H42   S    
C32   C36   A    
C40   H17   S    
C68   H63   S    
C8    C42   S    
C29   H13   S    
C30   C31   A    
C11   C14   A    
C14   C49   S    
C4    C41   S    
C49   C54   A    
C4    O4    A    
C43   H24   S    
C18   C19   A    
C63   H60   S    
N2    Zn1   S    
C49   C50   A    
O5    Zn1   S    
C24   C29   A    
C39   H23   S    
C36   H6    S    
C65   H70   S    
C47   C48   S    
C52   H37   S    
C64   H58   S    
C15   H56   S    
O2    Zn2   S    
C50   H35   S    
C31   C33   A    
C16   O5    A    
C10   H67   S    
C29   C30   A    
C9    C10   A    
C35   N2    A    
O1    Zn1   S    
C25   C32   A    
C63   H59   S    
C61   H48   S    
C59   C60   S    
C18   C22   A    
C21   C22   A    
C61   H50   S    
C12   C38   S    
C20   N1    A    
C1    O2    A    
O4    Zn2   S    
C27   H5    S    
C34   C65   S    
C59   H53   S    
C20   H10   S    
C45   C69   A    
C42   H25   S    
C62   H62   S    
C24   C25   A    
C7    H3    S    
C3    C8    A    
N1    Zn2   S    
C57   H43   S    
C25   C26   A    
C4    O3    A    
C35   H7    S    
C47   H30   S    
C51   C52   A    
C54   H39   S    
C60   C61   S    
C67   C69   A    
C65   H69   S    
C19   H9    S    
C43   C44   S    
C16   C56   S    
C5    C9    A    
C37   C38   S    
C46   H32   S    
C31   C32   A    
C66   H68   S    
C64   H57   S    
C50   C51   A    
C60   H52   S    
C17   C56   A    
C6    C7    A    
C44   H21   S    
C18   C55   S    
C66   H66   S    
C40   C41   S    
O8    Zn2   S    
C28   O8    A    
C22   C27   A    
C55   C57   S    
C38   H11   S    
O6    Zn2   S    
C34   C40   S    
C21   C24   A    
C2    C5    A    
C9    H4    S    
C39   H15   S    
C12   C34   S    
C67   H71   S    
C44   H20   S    
C52   C53   A    
C17   H45   S    
C55   H47   S    
C59   H54   S    
C48   H29   S    
C46   C47   S    
C19   N1    A    
C45   C70   A    
C58   H40   S    
C62   H61   S    
C68   H65   S    
C3    C67   A    
C58   H41   S    
C57   H44   S    
C48   H28   S    
C46   H33   S    
C43   H22   S    
C13   C17   A    
C42   H26   S    
C15   C56   A    
C40   H18   S    
C37   H1    S    
C2    C3    A    
C69   H72   S    
C65   C66   S    
C2    C70   A    
C6    C13   A    
C11   C13   A    
C53   H38   S    
C1    C45   S    
C57   C58   S    
C5    C6    A    
C51   H36   S    
C23   C39   S    
C68   H64   S    
C33   C35   A    
O7    Zn1   S    
C23   H34   S    
C37   C41   S    
C60   H51   S    
O3    Zn1   S    
C33   H14   S    
C46   C70   S    
C10   C11   A    
C63   C64   S    
C30   H8    S    
C20   C21   A    
C28   O7    A    
C64   H55   S    
C55   H46   S    
C37   H2    S    
C14   C15   A    
C26   C59   S    
C16   O6    A    
C34   H12   S    
C36   N2    A    
C44   H19   S    
C38   C62   S    
