data_mof_unit_pretest_1917.cif
_audit_creation_date              2012-12-10T16:55:29-0500
_audit_creation_method            fapswitch 2.2
_symmetry_space_group_name_H-M    P1
_symmetry_Int_Tables_number       1
_space_group_crystal_system       triclinic
_cell_length_a                    21.75598
_cell_length_b                    21.707804
_cell_length_c                    22.215369
_cell_angle_alpha                 119.538608
_cell_angle_beta                  120.27523
_cell_angle_gamma                 88.523408
_cell_volume                      7528.6304733

loop_
_atom_site_label
_atom_site_type_symbol
_atom_type_description
_atom_site_fract_x
_atom_site_fract_y
_atom_site_fract_z
_atom_type_partial_charge
C1    C     C_R   0.005277 0.384982 0.508222 0.810732
C2    C     C_R   0.994720 0.615012 0.491770 0.810665
C3    C     C_3   0.237193 0.830193 0.046788 -0.391698
C4    C     C_3   0.771934 0.176860 0.953100 -0.392284
C5    C     C_3   0.188949 0.781023 0.949767 -0.420560
C6    C     C_3   0.820129 0.225987 0.050119 -0.419625
C7    C     C_1   0.336684 0.837488 0.173653 -0.102981
C8    C     C_1   0.663202 0.162520 0.826347 -0.103087
C9    C     C_1   0.163393 0.662410 0.826233 -0.101815
C10   C     C_1   0.836497 0.337589 0.173766 -0.102330
C11   C     C_1   0.125859 0.625323 0.751224 -0.153183
C12   C     C_1   0.874121 0.374677 0.248776 -0.153359
C13   C     C_2   0.983604 0.243106 0.552842 -0.092028
C14   C     C_2   0.016427 0.756916 0.447201 -0.092438
C15   C     C_2   0.985166 0.182387 0.494449 -0.220537
C16   C     C_2   0.014788 0.817608 0.505546 -0.219870
C17   C     C_2   0.976974 0.306299 0.545085 -0.329870
C18   C     C_2   0.023065 0.693725 0.454962 -0.331167
C19   C     C_2   0.022518 0.332680 0.533382 0.295986
C20   C     C_2   0.977474 0.667292 0.466579 0.295832
C21   C     C_R   0.617330 0.997509 0.496675 0.944250
C22   C     C_R   0.382670 0.002491 0.503325 0.944268
C23   C     C_R   0.081238 0.581164 0.662318 0.913436
C24   C     C_R   0.918761 0.418836 0.337682 0.913290
C25   C     C_R   0.418573 0.919099 0.337601 0.910864
C26   C     C_R   0.581428 0.080902 0.662399 0.910877
C27   C     C_R   0.880796 0.002683 0.500086 0.939507
C28   C     C_R   0.119204 0.997316 0.499913 0.939552
C29   C     C_R   0.995989 0.118768 0.499057 0.932441
C30   C     C_R   0.003997 0.881231 0.500943 0.932155
C31   C     C_2   0.753482 0.013076 0.444331 0.027795
C32   C     C_2   0.246520 0.986926 0.555672 0.027767
C33   C     C_2   0.815734 0.010151 0.502102 -0.371320
C34   C     C_2   0.184266 0.989848 0.497898 -0.371428
C35   C     C_2   0.691111 0.020939 0.453263 -0.197912
C36   C     C_2   0.308890 0.979063 0.546739 -0.197905
C37   C     C_2   0.677197 0.989041 0.485264 -0.348838
C38   C     C_2   0.322802 0.010959 0.514735 -0.348845
C39   C     C_3   0.292913 0.726928 0.951984 -0.381427
C40   C     C_3   0.708686 0.261347 0.048301 -0.382857
C41   C     C_3   0.195034 0.666564 0.953144 -0.135112
C42   C     C_3   0.793524 0.338316 0.046679 -0.136422
C43   C     C_3   0.244652 0.716038 0.050681 -0.419596
C44   C     C_3   0.743949 0.288684 0.949146 -0.419224
C45   C     C_1   0.374141 0.875162 0.248667 -0.174326
C46   C     C_1   0.625810 0.124840 0.751333 -0.174382
C47   C     C_3   0.209074 0.707451 0.917818 0.291213
C48   C     C_3   0.790619 0.292545 0.082182 0.291550
C49   C     C_3   0.341225 0.775404 0.049030 -0.392079
C50   C     C_3   0.660289 0.212865 0.951254 -0.392101
C51   C     C_3   0.291036 0.790977 0.082280 0.323443
C52   C     C_3   0.708752 0.209040 0.917719 0.323818
H1    H     H_    0.379916 0.746479 0.073126 0.179275
H2    H     H_    0.614888 0.236595 0.927229 0.178660
H3    H     H_    0.303431 0.757461 0.928352 0.174310
H4    H     H_    0.706212 0.227400 0.072074 0.173955
H5    H     H_    0.375920 0.828545 0.071883 0.174574
H6    H     H_    0.633539 0.156108 0.928546 0.174430
H7    H     H_    0.200373 0.841736 0.069718 0.173240
H8    H     H_    0.807664 0.173830 0.929975 0.172976
H9    H     H_    0.985634 0.245725 0.603941 0.165077
H10   H     H_    0.014476 0.754326 0.396153 0.164530
H11   H     H_    0.974819 0.178256 0.439103 0.170662
H12   H     H_    0.025063 0.821719 0.560857 0.170617
H13   H     H_    0.929859 0.326642 0.541331 0.161629
H14   H     H_    0.070228 0.673442 0.458812 0.161659
H15   H     H_    0.821666 0.019365 0.557747 0.156370
H16   H     H_    0.178332 0.980630 0.442251 0.156350
H17   H     H_    0.655476 0.051490 0.431710 0.172813
H18   H     H_    0.344526 0.948514 0.568295 0.172799
H19   H     H_    0.309536 0.675537 0.929325 0.186449
H20   H     H_    0.685597 0.307363 0.071039 0.185280
H21   H     H_    0.707586 0.952064 0.498754 0.169187
H22   H     H_    0.292412 0.047933 0.501243 0.169172
H23   H     H_    0.135532 0.656537 0.931608 0.129411
H24   H     H_    0.852067 0.356901 0.067982 0.129681
H25   H     H_    0.282951 0.688054 0.077223 0.178631
H26   H     H_    0.698859 0.311778 0.922704 0.178663
H27   H     H_    0.208421 0.726139 0.074311 0.161395
H28   H     H_    0.778748 0.287019 0.925285 0.161897
H29   H     H_    0.198109 0.811649 0.925529 0.182384
H30   H     H_    0.819046 0.192116 0.074468 0.182560
H31   H     H_    0.128925 0.769237 0.926091 0.174682
H32   H     H_    0.879094 0.246252 0.073601 0.174435
H33   H     H_    0.269423 0.884391 0.069068 0.177485
H34   H     H_    0.747826 0.119440 0.930930 0.177492
O1    O     O_R   0.051090 0.409550 0.500010 -0.538585
O2    O     O_R   0.948910 0.590450 0.499990 -0.538658
O3    O     O_R   0.874830 0.965310 0.430660 -0.598412
O4    O     O_R   0.125170 0.034690 0.569340 -0.598336
O5    O     O_R   0.034670 0.125130 0.569340 -0.597890
O6    O     O_R   0.965330 0.874870 0.430660 -0.598059
O7    O     O_R   0.965310 0.055770 0.430620 -0.627589
O8    O     O_R   0.034690 0.944230 0.569380 -0.627569
O9    O     O_R   0.948930 0.409540 0.500030 -0.653108
O10   O     O_R   0.051070 0.590460 0.499970 -0.653223
O11   O     O_R   0.112510 0.561440 0.622850 -0.597373
O12   O     O_R   0.887490 0.438560 0.377150 -0.596915
O13   O     O_R   0.010350 0.561430 0.622870 -0.621976
O14   O     O_R   0.989650 0.438570 0.377130 -0.622249
O15   O     O_R   0.590290 0.948920 0.499990 -0.618905
O16   O     O_R   0.409710 0.051080 0.500010 -0.618929
O17   O     O_R   0.590320 0.051050 0.499970 -0.618909
O18   O     O_R   0.409680 0.948950 0.500030 -0.618897
O19   O     O_R   0.438380 0.887500 0.377150 -0.614499
O20   O     O_R   0.561620 0.112500 0.622850 -0.614571
O21   O     O_R   0.438400 0.989630 0.377130 -0.620152
O22   O     O_R   0.561600 0.010370 0.622870 -0.620137
O23   O     O_R   0.944190 0.034670 0.569380 -0.628301
O24   O     O_R   0.055810 0.965330 0.430620 -0.628401
Zn1   Zn    Zn3+2 0.068220 0.500010 0.499990 1.024421
Zn2   Zn    Zn3+2 0.931780 0.499990 0.500010 1.024977
Zn3   Zn    Zn3+2 0.499800 0.931810 0.500010 0.970933
Zn4   Zn    Zn3+2 0.500200 0.068190 0.499990 0.970820
Zn5   Zn    Zn3+2 0.046310 0.046310 0.592620 1.002786
Zn6   Zn    Zn3+2 0.953690 0.953690 0.407380 1.002308
S1    S     S_3+6 0.110047 0.313872 0.558359 0.036772
O25   O     O_2   0.137516 0.292284 0.620280 -0.272805
O26   O     O_2   0.100587 0.251950 0.479228 -0.320744
O27   O     O_3   0.174577 0.389684 0.600465 -0.530163
H35   H     H_    0.219521 0.373642 0.607867 0.380220
S2    S     S_3+6 0.889886 0.685995 0.441445 0.036800
O28   O     O_2   0.899213 0.747870 0.520513 -0.320660
O29   O     O_2   0.862474 0.707593 0.379536 -0.273016
O30   O     O_3   0.825385 0.610111 0.399238 -0.529451
H36   H     H_    0.780406 0.626098 0.391783 0.380544
C53   C     C_1   0.747690 0.014829 0.377387 0.205395
N1    N     N_1   0.743049 0.016299 0.323898 -0.205559
C54   C     C_1   0.252314 0.985180 0.622620 0.205438
N2    N     N_1   0.256957 0.983715 0.676113 -0.205456
C55   C     C_1   0.208197 0.593237 0.921797 0.168151
N3    N     N_1   0.218478 0.535825 0.897191 -0.167994
C56   C     C_1   0.770837 0.405927 0.078140 0.170626
N4    N     N_1   0.753109 0.458866 0.102839 -0.164267

loop_
_geom_bond_atom_site_label_1
_geom_bond_atom_site_label_2
_ccdc_geom_bond_type
C1    O1    A    
C23   O13   A    
C6    H30   S    
O24   Zn6   S    
C3    H33   S    
O15   Zn3   S    
C14   C18   S    
C31   C53   S    
C26   O20   A    
C49   C51   S    
C49   H5    S    
C27   C33   S    
C5    C47   S    
C33   H15   S    
C50   H2    S    
C6    C48   S    
C4    C52   S    
C42   C56   S    
C24   O12   A    
C7    C45   T    
O19   Zn3   S    
C35   C37   D    
O9    Zn2   S    
S1    O26   D    
O11   Zn1   S    
C49   H1    S    
O1    Zn1   S    
C25   C45   S    
C43   H27   S    
C14   H10   S    
C22   O18   A    
C18   C20   D    
C11   C23   S    
C5    H29   S    
C39   H3    S    
C40   H4    S    
C50   C52   S    
C31   C33   D    
C2    O2    A    
C8    C52   S    
C20   S2    S    
C21   O15   A    
C44   C52   S    
O3    Zn6   S    
C28   C34   S    
C41   C43   S    
C42   C44   S    
C32   C54   S    
C36   H18   S    
C15   C29   S    
O10   Zn1   S    
C1    C19   S    
O12   Zn2   S    
C25   O19   A    
C50   H6    S    
C44   H28   S    
O17   Zn4   S    
C6    H32   S    
C4    C6    S    
S1    O27   S    
C34   H16   S    
C41   C55   S    
C3    C51   S    
C28   O24   A    
C2    C20   S    
O7    Zn6   S    
O2    Zn2   S    
O22   Zn3   S    
O21   Zn4   S    
O16   Zn4   S    
C41   H23   S    
C9    C11   T    
C1    O9    A    
C4    H8    S    
C41   C47   S    
C13   H9    S    
C42   C48   S    
O4    Zn5   S    
O6    Zn6   S    
C35   H17   S    
C10   C12   T    
C30   O6    A    
C39   C49   S    
O20   Zn4   S    
C9    C47   S    
C13   C15   D    
C10   C48   S    
O30   H36   S    
C14   C16   D    
C18   H14   S    
S2    O29   D    
C53   N1    T    
C32   C36   S    
C29   O5    A    
C4    H34   S    
O27   H35   S    
C25   O21   A    
C39   C47   S    
C54   N2    T    
C38   H22   S    
C40   C48   S    
C37   H21   S    
C39   H19   S    
C40   H20   S    
C23   O11   A    
C24   O14   A    
C17   H13   S    
C3    C5    S    
O8    Zn5   S    
C5    H31   S    
C43   H25   S    
C12   C24   S    
C42   H24   S    
C3    H7    S    
C22   O16   A    
C13   C17   S    
S2    O30   S    
C2    O10   A    
C7    C51   S    
C30   O8    A    
S1    O25   D    
C36   C38   D    
C29   O7    A    
C43   C51   S    
C56   N4    T    
C40   C50   S    
O13   Zn2   S    
C44   H26   S    
C17   C19   D    
O5    Zn5   S    
C27   O3    A    
C31   C35   S    
C8    C46   T    
O23   Zn5   S    
O18   Zn3   S    
C21   O17   A    
C21   C37   S    
C27   O23   A    
O14   Zn1   S    
C15   H11   S    
C28   O4    A    
C16   H12   S    
S2    O28   D    
C26   C46   S    
C16   C30   S    
C26   O22   A    
C55   N3    T    
C32   C34   D    
C19   S1    S    
C22   C38   S    
