data_mof_unit_pretest_302.cif
_audit_creation_date              2012-12-11T15:25:41-0500
_audit_creation_method            fapswitch 2.2
_symmetry_space_group_name_H-M    P1
_symmetry_Int_Tables_number       1
_space_group_crystal_system       triclinic
_cell_length_a                    24.596809
_cell_length_b                    17.098378
_cell_length_c                    15.661964
_cell_angle_alpha                 90.000654
_cell_angle_beta                  50.704701
_cell_angle_gamma                 90.000644
_cell_volume                      5097.53667803

loop_
_atom_site_label
_atom_site_type_symbol
_atom_type_description
_atom_site_fract_x
_atom_site_fract_y
_atom_site_fract_z
_atom_type_partial_charge
C1    C     C_R   0.339588 0.124874 0.786584 0.469763
C2    C     C_2   0.341534 0.761507 0.888505 -0.182947
C3    C     C_3   0.334156 0.450841 0.076638 -0.911289
C4    C     C_3   0.229308 0.720588 0.199936 0.264827
C5    C     C_3   0.298291 0.738313 0.176424 -0.956245
C6    C     C_3   0.745402 0.450870 0.852512 0.289384
C7    C     C_3   0.665848 0.450885 0.923622 -0.911354
C8    C     C_2   0.315235 0.177621 0.959619 -0.188200
C9    C     C_2   0.658470 0.761513 0.111482 -0.182936
C10   C     C_2   0.184766 0.677614 0.040375 -0.188184
C11   C     C_2   0.841544 0.261492 0.888481 -0.182908
C12   C     C_2   0.815240 0.677638 0.959602 -0.188182
C13   C     C_2   0.158467 0.261513 0.111478 -0.182930
C14   C     C_2   0.753507 0.161715 0.972959 -0.143108
C15   C     C_2   0.299985 0.715084 0.883104 -0.093369
C16   C     C_2   0.246498 0.161729 0.027016 -0.143117
C17   C     C_R   0.659177 0.871923 0.216614 0.468518
C18   C     C_2   0.700018 0.715089 0.116884 -0.093374
C19   C     C_2   0.253503 0.661721 0.972966 -0.143120
C20   C     C_2   0.799987 0.215076 0.883092 -0.093373
C21   C     C_2   0.746505 0.661734 0.027013 -0.143106
C22   C     C_2   0.200013 0.215087 0.116883 -0.093357
C23   C     C_R   0.614165 0.101882 0.592764 -0.111594
C24   C     C_R   0.406173 0.859258 0.408607 -0.096570
C25   C     C_R   0.385836 0.101883 0.407236 -0.111593
C26   C     C_R   0.593830 0.859260 0.591392 -0.096571
C27   C     C_R   0.114165 0.601883 0.592763 -0.111596
C28   C     C_R   0.660420 0.124860 0.213402 0.469764
C29   C     C_R   0.906172 0.359257 0.408608 -0.096574
C30   C     C_R   0.885836 0.601882 0.407235 -0.111597
C31   C     C_R   0.093832 0.359262 0.591392 -0.096577
C32   C     C_R   0.689171 0.099318 0.409873 -0.115335
C33   C     C_R   0.333201 0.859107 0.591905 -0.182772
C34   C     C_R   0.310829 0.099320 0.590129 -0.115213
C35   C     C_R   0.666802 0.859110 0.408095 -0.182760
C36   C     C_R   0.189171 0.599321 0.409871 -0.115328
C37   C     C_R   0.833201 0.359107 0.591906 -0.182802
C38   C     C_R   0.810829 0.599317 0.590127 -0.115287
C39   C     C_R   0.340824 0.871920 0.783381 0.468532
C40   C     C_R   0.166801 0.359109 0.408094 -0.182765
C41   C     C_R   0.572215 0.118330 0.207407 -0.212521
C42   C     C_R   0.432632 0.868995 0.779024 -0.247312
C43   C     C_R   0.427789 0.118336 0.792587 -0.212505
C44   C     C_R   0.567369 0.868998 0.220971 -0.247306
C45   C     C_R   0.072213 0.618335 0.207411 -0.212519
C46   C     C_R   0.932637 0.368987 0.779012 -0.247313
C47   C     C_R   0.927791 0.618347 0.792578 -0.212512
C48   C     C_R   0.067368 0.368999 0.220971 -0.247311
C49   C     C_R   0.360624 0.147371 0.847232 -0.031955
C50   C     C_R   0.839589 0.624882 0.786572 0.469801
C51   C     C_R   0.629755 0.831920 0.178641 0.047760
C52   C     C_R   0.639384 0.147356 0.152754 -0.031901
C53   C     C_R   0.370247 0.831916 0.821351 0.047774
C54   C     C_R   0.860627 0.647385 0.847217 -0.031936
C55   C     C_R   0.129753 0.331919 0.178641 0.047771
C56   C     C_R   0.139381 0.647363 0.152762 -0.031912
C57   C     C_R   0.870256 0.331903 0.821329 0.047803
C58   C     C_R   0.683445 0.114115 0.501993 0.014219
C59   C     C_R   0.354976 0.815921 0.500709 0.037647
C60   C     C_R   0.316556 0.114117 0.498008 0.014163
C61   C     C_R   0.159175 0.371920 0.216616 0.468517
C62   C     C_R   0.645028 0.815925 0.499289 0.037636
C63   C     C_R   0.183445 0.614117 0.501991 0.014209
C64   C     C_R   0.854975 0.315921 0.500711 0.037672
C65   C     C_R   0.816556 0.614115 0.498006 0.014197
C66   C     C_R   0.145029 0.315926 0.499289 0.037643
C67   C     C_R   0.192938 0.152293 0.595801 -0.183308
C68   C     C_R   0.733318 0.710540 0.396959 -0.175281
C69   C     C_R   0.807065 0.152286 0.404199 -0.183234
C70   C     C_R   0.266695 0.710526 0.603035 -0.175269
C71   C     C_R   0.692938 0.652289 0.595797 -0.183254
C72   C     C_R   0.160417 0.624867 0.213410 0.469780
C73   C     C_R   0.233317 0.210540 0.396962 -0.175278
C74   C     C_R   0.307064 0.652292 0.404193 -0.183254
C75   C     C_R   0.766692 0.210528 0.603039 -0.175259
C76   C     C_R   0.650427 0.705821 0.596579 -0.165900
C77   C     C_R   0.276260 0.158223 0.396411 -0.163818
C78   C     C_R   0.349576 0.705823 0.403411 -0.165915
C79   C     C_R   0.723746 0.158211 0.603591 -0.163841
C80   C     C_R   0.150427 0.205824 0.596582 -0.165907
C81   C     C_R   0.776262 0.658223 0.396407 -0.163832
C82   C     C_R   0.849576 0.205818 0.403416 -0.165914
C83   C     C_R   0.840829 0.371910 0.783368 0.468523
C84   C     C_R   0.223748 0.658210 0.603587 -0.163835
C85   C     C_R   0.674720 0.741626 0.497577 0.145672
C86   C     C_R   0.260038 0.136610 0.496486 0.148006
C87   C     C_R   0.325287 0.741619 0.502417 0.145675
C88   C     C_R   0.739965 0.136603 0.503515 0.147997
C89   C     C_R   0.174720 0.241627 0.497578 0.145678
C90   C     C_R   0.760039 0.636608 0.496482 0.148000
C91   C     C_R   0.825286 0.241619 0.502421 0.145667
C92   C     C_R   0.239965 0.636606 0.503510 0.148000
C93   C     C_3   0.270762 0.220654 0.799991 0.264965
C94   C     C_2   0.684769 0.177606 0.040367 -0.188177
C95   C     C_3   0.201823 0.238436 0.823369 -0.956094
C96   C     C_3   0.754615 0.950852 0.147520 0.289396
C97   C     C_3   0.834158 0.950817 0.076803 -0.911197
C98   C     C_3   0.729301 0.220583 0.199949 0.264836
C99   C     C_3   0.798282 0.238315 0.176441 -0.956313
C100  C     C_3   0.245393 0.950867 0.852502 0.289352
C101  C     C_3   0.165847 0.950857 0.923385 -0.911307
C102  C     C_3   0.770707 0.720602 0.800031 0.264791
C103  C     C_3   0.701741 0.738326 0.823499 -0.956408
C104  C     C_3   0.254611 0.450859 0.147497 0.289381
H1    H     H_    0.592180 0.098141 0.678066 0.085303
H2    H     H_    0.290286 0.845786 0.675940 0.159193
H3    H     H_    0.262721 0.091549 0.673288 0.146676
H4    H     H_    0.709717 0.845791 0.324061 0.159218
H5    H     H_    0.237278 0.591551 0.326712 0.146695
H6    H     H_    0.790289 0.345785 0.675943 0.159149
H7    H     H_    0.762721 0.591543 0.673284 0.146659
H8    H     H_    0.209715 0.345788 0.324058 0.159198
H9    H     H_    0.542857 0.117901 0.177475 0.129091
H10   H     H_    0.463129 0.859481 0.805607 0.124547
H11   H     H_    0.457145 0.117906 0.822521 0.129091
H12   H     H_    0.428963 0.847004 0.324755 0.082147
H13   H     H_    0.536873 0.859485 0.194386 0.124546
H14   H     H_    0.042856 0.617906 0.177479 0.129092
H15   H     H_    0.963134 0.359471 0.805595 0.124546
H16   H     H_    0.957147 0.617921 0.822513 0.129095
H17   H     H_    0.036872 0.359489 0.194386 0.124546
H18   H     H_    0.176007 0.130203 0.673869 0.111861
H19   H     H_    0.750484 0.731677 0.318346 0.115224
H20   H     H_    0.823995 0.130194 0.326132 0.111812
H21   H     H_    0.249534 0.731655 0.681649 0.115214
H22   H     H_    0.676006 0.630195 0.673863 0.111824
H23   H     H_    0.407820 0.098141 0.321935 0.085307
H24   H     H_    0.250483 0.231676 0.318349 0.115219
H25   H     H_    0.323993 0.630205 0.326125 0.111831
H26   H     H_    0.749529 0.231660 0.681653 0.115206
H27   H     H_    0.602092 0.723649 0.675243 0.110960
H28   H     H_    0.325322 0.142285 0.317614 0.106808
H29   H     H_    0.397908 0.723656 0.324745 0.110958
H30   H     H_    0.674685 0.142269 0.682390 0.106809
H31   H     H_    0.102092 0.223653 0.675245 0.110960
H32   H     H_    0.825324 0.642286 0.317610 0.106812
H33   H     H_    0.897910 0.223650 0.324751 0.110956
H34   H     H_    0.571041 0.847007 0.675243 0.082147
H35   H     H_    0.174689 0.642265 0.682385 0.106810
H36   H     H_    0.289883 0.727048 0.826105 0.162078
H37   H     H_    0.776157 0.121389 0.996303 0.177952
H38   H     H_    0.710114 0.727047 0.173889 0.162098
H39   H     H_    0.223852 0.121406 0.003659 0.177936
H40   H     H_    0.789878 0.227044 0.826103 0.162064
H41   H     H_    0.276153 0.621392 0.996309 0.177962
H42   H     H_    0.210109 0.227045 0.173890 0.162082
H43   H     H_    0.723859 0.621398 0.003670 0.177980
H44   H     H_    0.351820 0.749429 0.945092 0.142223
H45   H     H_    0.092181 0.598143 0.678065 0.085305
H46   H     H_    0.662768 0.218247 0.016016 0.160644
H47   H     H_    0.648188 0.749441 0.054889 0.142214
H48   H     H_    0.337233 0.218260 0.983980 0.160645
H49   H     H_    0.851838 0.249411 0.945058 0.142199
H50   H     H_    0.162766 0.718258 0.016025 0.160641
H51   H     H_    0.148186 0.249440 0.054882 0.142198
H52   H     H_    0.837236 0.718289 0.983952 0.160646
H53   H     H_    0.314679 0.240961 0.714734 0.100771
H54   H     H_    0.271634 0.254869 0.859476 0.120193
H55   H     H_    0.157495 0.208469 0.899891 0.259200
H56   H     H_    0.928962 0.347003 0.324757 0.082147
H57   H     H_    0.192131 0.302485 0.833294 0.221049
H58   H     H_    0.204394 0.218604 0.753663 0.251200
H59   H     H_    0.732537 0.977897 0.228064 0.115255
H60   H     H_    0.740502 0.986409 0.104472 0.107875
H61   H     H_    0.858323 0.924582 0.994911 0.255796
H62   H     H_    0.853392 0.011796 0.064876 0.228273
H63   H     H_    0.850069 0.916449 0.117980 0.249897
H64   H     H_    0.685433 0.240881 0.285227 0.100855
H65   H     H_    0.728387 0.254828 0.140532 0.120224
H66   H     H_    0.842565 0.208351 0.099892 0.259235
H67   H     H_    0.907821 0.598141 0.321933 0.085306
H68   H     H_    0.808002 0.302355 0.166519 0.221089
H69   H     H_    0.795767 0.218443 0.246068 0.251217
H70   H     H_    0.267402 0.977883 0.771978 0.115238
H71   H     H_    0.259586 0.986441 0.895422 0.107833
H72   H     H_    0.141760 0.924659 0.005260 0.255819
H73   H     H_    0.146622 0.011840 0.935310 0.228261
H74   H     H_    0.149846 0.916467 0.882359 0.249961
H75   H     H_    0.814584 0.740907 0.714768 0.100876
H76   H     H_    0.771599 0.754844 0.859471 0.120243
H77   H     H_    0.657455 0.708356 0.900027 0.259264
H78   H     H_    0.071046 0.347012 0.675242 0.082145
H79   H     H_    0.692013 0.802364 0.833433 0.221098
H80   H     H_    0.704281 0.718458 0.753849 0.251248
H81   H     H_    0.232592 0.477882 0.228022 0.115271
H82   H     H_    0.240432 0.486429 0.104554 0.107877
H83   H     H_    0.358254 0.424636 0.994762 0.255807
H84   H     H_    0.353385 0.511823 0.064710 0.228275
H85   H     H_    0.350142 0.416455 0.117688 0.249948
H86   H     H_    0.185440 0.740898 0.285209 0.100845
H87   H     H_    0.228398 0.754826 0.140510 0.120215
H88   H     H_    0.342567 0.708291 0.099919 0.259253
H89   H     H_    0.737278 0.091546 0.326714 0.146683
H90   H     H_    0.308043 0.802352 0.166403 0.221066
H91   H     H_    0.295751 0.718501 0.246103 0.251189
H92   H     H_    0.767319 0.477836 0.772006 0.115252
H93   H     H_    0.759699 0.486479 0.895260 0.107879
H94   H     H_    0.641865 0.424790 0.005506 0.255788
H95   H     H_    0.646632 0.511868 0.935479 0.228284
H96   H     H_    0.649726 0.416415 0.882830 0.250037
N1    N     N_R   0.388930 0.078160 0.705470 -0.100338
N2    N     N_R   0.419500 0.922160 0.443350 -0.032241
N3    N     N_R   0.419500 0.077840 0.443350 -0.038396
N4    N     N_R   0.580500 0.922160 0.556650 -0.032239
N5    N     N_R   0.080500 0.577840 0.556650 -0.038393
N6    N     N_R   0.919500 0.422160 0.443350 -0.032239
N7    N     N_R   0.919500 0.577840 0.443350 -0.038394
N8    N     N_R   0.080500 0.422160 0.556650 -0.032238
N9    N     N_R   0.626210 0.077590 0.443410 -0.045654
N10   N     N_R   0.373790 0.922410 0.556590 -0.047459
N11   N     N_R   0.373790 0.077590 0.556590 -0.045646
N12   N     N_R   0.611070 0.921840 0.294530 -0.114508
N13   N     N_R   0.626210 0.922410 0.443410 -0.047455
N14   N     N_R   0.126210 0.577590 0.443410 -0.045650
N15   N     N_R   0.873790 0.422410 0.556590 -0.047459
N16   N     N_R   0.873790 0.577590 0.556590 -0.045645
N17   N     N_R   0.126210 0.422410 0.443410 -0.047453
N18   N     N_R   0.554800 0.077270 0.294580 -0.063749
N19   N     N_R   0.445200 0.922730 0.705420 -0.057969
N20   N     N_R   0.445200 0.077270 0.705420 -0.063751
N21   N     N_R   0.554800 0.922730 0.294580 -0.057967
N22   N     N_R   0.054800 0.577270 0.294580 -0.063750
N23   N     N_R   0.611070 0.078160 0.294530 -0.100335
N24   N     N_R   0.945200 0.422730 0.705420 -0.057969
N25   N     N_R   0.945200 0.577270 0.705420 -0.063752
N26   N     N_R   0.054800 0.422730 0.294580 -0.057968
N27   N     N_R   0.388930 0.921840 0.705470 -0.114511
N28   N     N_R   0.888930 0.578160 0.705470 -0.100330
N29   N     N_R   0.111070 0.421840 0.294530 -0.114507
N30   N     N_R   0.111070 0.578160 0.294530 -0.100331
N31   N     N_R   0.888930 0.421840 0.705470 -0.114511
N32   N     N_R   0.580500 0.077840 0.556650 -0.038393
Ni1   Ni    Ni4+2 0.382710 0.000000 0.629850 0.210403
Ni2   Ni    Ni4+2 0.617290 0.000000 0.370150 0.210414
Ni3   Ni    Ni4+2 0.882710 0.500000 0.629850 0.210396
Ni4   Ni    Ni4+2 0.117290 0.500000 0.370150 0.210410
Ni5   Ni    Ni4+2 0.513020 0.000000 0.629850 0.194863
Ni6   Ni    Ni4+2 0.486980 0.000000 0.370150 0.194864
Ni7   Ni    Ni4+2 0.013020 0.500000 0.629850 0.194868
Ni8   Ni    Ni4+2 0.986980 0.500000 0.370150 0.194865
O1    O     O_3   0.275951 0.139376 0.810596 -0.678248
O2    O     O_3   0.730803 0.873240 0.161824 -0.675553
O3    O     O_3   0.724072 0.139317 0.189351 -0.678271
O4    O     O_3   0.269196 0.873250 0.838188 -0.675519
O5    O     O_3   0.775940 0.639338 0.810621 -0.678259
O6    O     O_3   0.230802 0.373244 0.161814 -0.675539
O7    O     O_3   0.224070 0.639321 0.189357 -0.678280
O8    O     O_3   0.769198 0.373249 0.838200 -0.675517

loop_
_geom_bond_atom_site_label_1
_geom_bond_atom_site_label_2
_ccdc_geom_bond_type
C78   C87   A    
N6    N15   A    
C23   C58   A    
C102  H75   S    
C40   N17   A    
C31   C66   A    
C18   C21   S    
C102  H76   S    
C20   H40   S    
C50   N28   A    
C43   N20   A    
C9    C51   S    
C100  C101  S    
C32   C58   A    
C17   N12   A    
C1    N1    A    
C3    H84   S    
C10   H50   S    
C6    H92   S    
C41   N18   A    
N18   N23   A    
C40   H8    S    
C99   H66   S    
C15   C19   S    
C104  H81   S    
C24   N2    A    
C19   H41   S    
C80   H31   S    
C72   N30   A    
C95   H55   S    
C34   H3    S    
C21   H43   S    
C72   O7    S    
C6    O8    S    
C8    H48   S    
N2    N10   A    
C15   H36   S    
C82   H33   S    
C3    H85   S    
C42   C53   A    
C29   C64   A    
C71   C76   A    
C76   H27   S    
C8    C49   S    
C93   C95   S    
C2    H44   S    
C97   H62   S    
C23   H1    S    
C55   C61   A    
C7    H96   S    
N25   N28   A    
C46   N24   A    
N8    Ni7   S    
C8    C16   D    
N10   Ni1   S    
C74   C92   A    
C80   C89   A    
N5    Ni7   S    
C73   C77   A    
N9    Ni2   S    
C13   H51   S    
N3    Ni6   S    
C101  H74   S    
C43   H11   S    
C98   H65   S    
C73   H24   S    
C42   H10   S    
C24   C59   A    
C22   H42   S    
C84   H35   S    
C56   C72   A    
C99   H69   S    
C83   O8    S    
C46   H15   S    
C61   N29   A    
C57   C83   A    
C71   H22   S    
C52   C94   S    
C69   C82   A    
C25   C60   A    
C66   C89   S    
C50   O5    S    
C10   C56   S    
C41   C52   A    
C39   N27   A    
C23   N32   A    
C100  O4    S    
C75   H26   S    
C75   C91   A    
C5    H91   S    
C36   N14   A    
C13   C55   S    
C14   H37   S    
C33   C59   A    
C40   C66   A    
C34   C60   A    
C68   C85   A    
C4    H87   S    
N3    N11   A    
C102  C103  S    
C102  O5    S    
C12   H52   S    
C3    C104  S    
C70   C87   A    
N17   Ni4   S    
C79   C88   A    
C78   H29   S    
C29   H56   S    
N12   N21   A    
C45   H14   S    
C65   C90   S    
N27   Ni1   S    
C62   C85   S    
C43   C49   A    
C11   C20   D    
N26   Ni8   S    
C33   H2    S    
C103  H80   S    
C4    H86   S    
C18   H38   S    
C16   H39   S    
N15   Ni3   S    
C45   C56   A    
C42   N19   A    
N24   N31   A    
C41   H9    S    
C48   H17   S    
C60   C86   S    
C4    C5    S    
C99   H68   S    
C69   H20   S    
C25   N3    A    
C61   O6    S    
C97   H63   S    
C12   C21   D    
C82   C91   A    
C96   H60   S    
C58   C88   S    
C27   N5    A    
N9    N32   A    
C63   C92   S    
C26   N4    A    
C4    O7    S    
N23   Ni2   S    
C14   C20   S    
C48   N26   A    
C33   N10   A    
N1    Ni1   S    
N28   Ni3   S    
C38   C65   A    
C10   C19   D    
C96   C97   S    
C100  H71   S    
C98   O3    S    
C50   C54   A    
C93   H53   S    
C2    C15   D    
C35   N13   A    
C96   O2    S    
C37   H6    S    
C69   C88   A    
C1    O1    S    
N7    Ni8   S    
C93   O1    S    
C47   C54   A    
C81   C90   A    
C44   C51   A    
C47   H16   S    
C28   O3    S    
C77   C86   A    
C24   H12   S    
C104  O6    S    
C11   H49   S    
C31   H78   S    
C100  H70   S    
N32   Ni5   S    
N25   Ni7   S    
C103  H79   S    
N20   Ni5   S    
C95   H58   S    
C17   O2    S    
N6    Ni8   S    
C45   N22   A    
C47   N25   A    
N13   Ni2   S    
C36   C63   A    
C67   H18   S    
C37   C64   A    
C70   C84   A    
C70   H21   S    
C81   H32   S    
C39   O4    S    
C35   H4    S    
N8    N17   A    
C79   H30   S    
C9    H47   S    
C67   C86   A    
C16   C22   S    
C7    H95   S    
C48   C55   A    
C103  H77   S    
N14   Ni4   S    
C67   C80   A    
N4    Ni5   S    
C5    H88   S    
C38   N16   A    
C32   H89   S    
C26   H34   S    
C2    C53   S    
C3    H83   S    
N2    Ni6   S    
C6    H93   S    
N12   Ni2   S    
C98   H64   S    
C6    C7    S    
C17   C51   A    
C94   H46   S    
N26   N29   A    
C104  H82   S    
C96   H59   S    
C68   C81   A    
N21   Ni6   S    
N30   Ni4   S    
N19   Ni5   S    
N29   Ni4   S    
C95   H57   S    
C25   H23   S    
C73   C89   A    
C31   N8    A    
C46   C57   A    
C68   H19   S    
C75   C79   A    
C14   C94   D    
C32   N9    A    
C28   C52   A    
C39   C53   A    
C71   C90   A    
C83   N31   A    
C44   H13   S    
C7    H94   S    
C28   N23   A    
C97   H61   S    
C30   N7    A    
N4    N13   A    
N22   Ni8   S    
N7    N16   A    
C37   N15   A    
C13   C22   D    
C35   C62   A    
C26   C62   A    
C93   H54   S    
N24   Ni7   S    
C59   C87   S    
C30   H67   S    
N5    N14   A    
C30   C65   A    
C101  H73   S    
C34   N11   A    
C29   N6    A    
N11   Ni1   S    
C9    C18   D    
N22   N30   A    
C27   H45   S    
C98   C99   S    
C74   C78   A    
C74   H25   S    
C36   H5    S    
N16   Ni3   S    
N18   Ni6   S    
C27   C63   A    
C101  H72   S    
N31   Ni3   S    
C44   N21   A    
C84   C92   A    
C64   C91   S    
N19   N27   A    
C38   H7    S    
C11   C57   S    
C1    C49   A    
C76   C85   A    
C77   H28   S    
C12   C54   S    
C5    H90   S    
N1    N20   A    
