data_mof_unit_pretest_1589.cif
_audit_creation_date              2012-12-10T21:33:32-0500
_audit_creation_method            fapswitch 2.2
_symmetry_space_group_name_H-M    P1
_symmetry_Int_Tables_number       1
_space_group_crystal_system       triclinic
_cell_length_a                    14.163338
_cell_length_b                    16.11108
_cell_length_c                    16.967959
_cell_angle_alpha                 87.827046
_cell_angle_beta                  90.277737
_cell_angle_gamma                 92.011874
_cell_volume                      3866.66895855

loop_
_atom_site_label
_atom_site_type_symbol
_atom_type_description
_atom_site_fract_x
_atom_site_fract_y
_atom_site_fract_z
_atom_type_partial_charge
C1    C     C_R   0.500130 0.488969 0.652710 0.873091
C2    C     C_R   0.542706 0.149519 0.536719 -0.353700
C3    C     C_R   0.518636 0.890941 0.516543 0.176434
C4    C     C_R   0.481329 0.109057 0.483476 0.176396
C5    C     C_R   0.575097 0.841411 0.565940 -0.376678
C6    C     C_R   0.424670 0.158576 0.434240 -0.376367
C7    C     C_R   0.570217 0.754509 0.561747 0.651390
C8    C     C_R   0.429559 0.245479 0.438431 0.651174
C9    C     C_R   0.671006 0.499721 0.500046 0.895662
C10   C     C_R   0.328994 0.500279 0.499953 0.894080
C11   C     C_1   0.772389 0.499276 0.500037 -0.153691
C12   C     C_R   0.498797 0.511052 0.347324 0.870316
C13   C     C_1   0.227612 0.500724 0.499959 -0.153225
C14   C     C_1   0.857578 0.499357 0.500027 0.015044
C15   C     C_1   0.142424 0.500642 0.499966 0.014882
C16   C     C_1   0.957401 0.499779 0.500006 0.028638
C17   C     C_1   0.042600 0.500220 0.499986 0.028547
C18   C     C_R   0.500326 0.482488 0.738096 -0.043081
C19   C     C_R   0.490618 0.517777 0.262210 -0.044046
C20   C     C_R   0.515746 0.554595 0.780474 -0.200051
C21   C     C_R   0.467505 0.446334 0.220762 -0.198324
C22   C     C_R   0.512257 0.550407 0.861698 -0.159683
C23   C     C_R   0.480202 0.401350 0.859651 -0.185655
C24   C     C_R   0.460035 0.451291 0.139678 -0.158994
C25   C     C_R   0.492531 0.473667 0.901805 0.325475
C26   C     C_R   0.476882 0.528026 0.098790 0.324277
C27   C     C_R   0.496040 0.599834 0.140336 -0.184716
C28   C     C_R   0.483827 0.405518 0.777847 -0.185504
C29   C     C_R   0.503158 0.594948 0.221977 -0.181444
C30   C     C_R   0.454679 0.763318 0.460797 0.640301
C31   C     C_R   0.545510 0.236690 0.539049 0.640633
C32   C     C_R   0.457471 0.850489 0.463132 -0.353716
F1    F     F_    0.604565 0.274916 0.590422 -0.638124
F2    F     F_    0.395817 0.725101 0.409271 -0.638702
F3    F     F_    0.625602 0.707781 0.609817 -0.644751
F4    F     F_    0.373941 0.292192 0.390551 -0.647078
H1    H     H_    0.455389 0.386400 0.250808 0.207207
H2    H     H_    0.412261 0.885461 0.423526 0.204534
H3    H     H_    0.622945 0.870176 0.607639 0.199932
H4    H     H_    0.376650 0.129803 0.392677 0.199717
H5    H     H_    0.530072 0.614519 0.751009 0.203514
H6    H     H_    0.442686 0.394909 0.109140 0.159353
H7    H     H_    0.524658 0.607262 0.892790 0.158954
H8    H     H_    0.466333 0.342018 0.890327 0.150091
H9    H     H_    0.508185 0.659117 0.109118 0.149800
H10   H     H_    0.472392 0.349074 0.745896 0.184788
H11   H     H_    0.519827 0.650974 0.253307 0.184866
H12   H     H_    0.588078 0.114555 0.576195 0.204643
N1    N     N_2   0.486155 0.466714 0.984480 -0.198492
N2    N     N_2   0.479336 0.534761 0.015972 -0.199168
N3    N     N_R   0.510540 0.716920 0.509720 -0.188860
N4    N     N_R   0.489460 0.283080 0.490280 -0.188651
N5    N     N_2   0.526082 0.979633 0.522852 -0.126089
N6    N     N_2   0.473878 0.020364 0.477170 -0.126148
O1    O     O_R   0.496230 0.422540 0.612660 -0.585360
O2    O     O_R   0.503770 0.577460 0.387340 -0.585052
O3    O     O_R   0.503000 0.561840 0.618900 -0.587623
O4    O     O_R   0.497000 0.438160 0.381100 -0.588297
O5    O     O_R   0.622900 0.430330 0.496880 -0.564546
O6    O     O_R   0.377100 0.569670 0.503120 -0.565279
O7    O     O_R   0.629670 0.569640 0.503120 -0.567074
O8    O     O_R   0.370330 0.430360 0.496880 -0.567333
Zn1   Zn    Zn3+2 0.495480 0.406980 0.495830 1.050775
Zn2   Zn    Zn3+2 0.504520 0.593020 0.504170 1.050987

loop_
_geom_bond_atom_site_label_1
_geom_bond_atom_site_label_2
_ccdc_geom_bond_type
O7    Zn2   S    
C10   O6    A    
C30   N3    A    
O2    Zn2   S    
C18   C28   A    
N5    N6    D    
O8    Zn1   S    
C1    O3    A    
C27   C29   A    
C28   H10   S    
C24   H6    S    
C8    N4    A    
C9    O5    A    
C2    C4    A    
C22   H7    S    
N4    Zn1   S    
C31   N4    A    
O6    Zn2   S    
C12   O4    A    
C25   N1    S    
C27   H9    S    
C26   N2    S    
C13   C15   T    
C20   H5    S    
C1    O1    A    
C7    N3    A    
C10   O8    A    
C23   C28   A    
C30   C32   A    
C3    N5    S    
C9    C11   S    
C1    C18   S    
C12   O2    A    
C7    F3    S    
C29   H11   S    
C9    O7    A    
C12   C19   S    
C19   C21   A    
N3    Zn2   S    
C20   C22   A    
N1    N2    D    
C18   C20   A    
C32   H2    S    
C5    H3    S    
C26   C27   A    
C3    C32   A    
C11   C14   T    
C14   C16   S    
C31   F1    S    
C30   F2    S    
C19   C29   A    
C6    H4    S    
C21   H1    S    
O3    Zn2   S    
C4    C6    A    
C23   C25   A    
C8    F4    S    
C21   C24   A    
O4    Zn1   S    
C15   C17   S    
C5    C7    A    
C16   C17   T    
C6    C8    A    
C2    H12   S    
C4    N6    S    
O5    Zn1   S    
C22   C25   A    
C23   H8    S    
C24   C26   A    
C2    C31   A    
C3    C5    A    
C10   C13   S    
O1    Zn1   S    
