data_mof_unit_pretest_850.cif
_audit_creation_date              2012-12-11T15:38:13-0500
_audit_creation_method            fapswitch 2.2
_symmetry_space_group_name_H-M    P1
_symmetry_Int_Tables_number       1
_space_group_crystal_system       triclinic
_cell_length_a                    20.565373
_cell_length_b                    7.345716
_cell_length_c                    18.803347
_cell_angle_alpha                 89.99987
_cell_angle_beta                  107.323727
_cell_angle_gamma                 90.00014
_cell_volume                      2711.71727307

loop_
_atom_site_label
_atom_site_type_symbol
_atom_type_description
_atom_site_fract_x
_atom_site_fract_y
_atom_site_fract_z
_atom_type_partial_charge
O1    O     O_R   0.422200 0.494350 0.423850 -0.528531
O2    O     O_R   0.577800 0.994350 0.576150 -0.528531
O3    O     O_R   0.555980 0.819730 0.435060 -0.538086
O4    O     O_R   0.444020 0.319730 0.564940 -0.538086
C1    C     C_R   0.575212 0.655902 0.420496 0.724263
C2    C     C_R   0.424788 0.155901 0.579504 0.724263
O5    O     O_R   0.421370 0.823790 0.415230 -0.532241
O6    O     O_R   0.578630 0.323790 0.584770 -0.532241
O7    O     O_R   0.442220 0.998380 0.556180 -0.534368
O8    O     O_R   0.557780 0.498380 0.443820 -0.534368
C3    C     C_R   0.396563 0.655424 0.394340 0.706325
C4    C     C_R   0.603437 0.155424 0.605660 0.706325
O9    O     O_3   0.507000 0.662200 0.546270 -0.377972
O10   O     O_3   0.493000 0.162200 0.453730 -0.377972
V1    V     V_3+5 0.498700 0.935390 0.491420 1.403368
V2    V     V_3+5 0.501300 0.435390 0.508580 1.403368
C5    C     C_1   0.666110 0.145403 0.668210 -0.185213
C6    C     C_1   0.333889 0.645403 0.331790 -0.185213
C7    C     C_1   0.718696 0.134384 0.719996 0.004147
C8    C     C_1   0.281304 0.634384 0.280004 0.004147
C9    C     C_1   0.780782 0.120432 0.780714 0.003184
C10   C     C_1   0.219218 0.620432 0.219286 0.003184
C11   C     C_1   0.833509 0.109546 0.832311 -0.183995
C12   C     C_1   0.166491 0.609546 0.167689 -0.183994
C13   C     C_3   0.269199 0.264497 0.828906 -0.201679
C14   C     C_3   0.730802 0.764499 0.171094 -0.201679
C15   C     C_3   0.246896 0.933295 0.796391 0.273467
C16   C     C_3   0.753102 0.433295 0.203609 0.273468
C17   C     C_3   0.295492 0.939188 0.745647 0.275583
C18   C     C_3   0.704506 0.439189 0.254353 0.275587
H1    H     H_    0.205788 0.830442 0.774670 0.103218
H2    H     H_    0.794211 0.330441 0.225331 0.103217
H3    H     H_    0.348176 0.909426 0.781896 0.125739
H4    H     H_    0.651823 0.409429 0.218104 0.125739
C19   C     C_1   0.380120 0.149679 0.626208 -0.220459
C20   C     C_1   0.619880 0.649681 0.373792 -0.220463
C21   C     C_3   0.211539 0.119895 0.796499 -0.000116
C22   C     C_3   0.788461 0.619895 0.203501 -0.000117
C23   C     C_3   0.318775 0.274121 0.778314 0.232531
C24   C     C_3   0.681226 0.774125 0.221686 0.232527
C25   C     C_3   0.295839 0.134584 0.712471 0.057346
C26   C     C_3   0.704161 0.634586 0.287529 0.057345
C27   C     C_3   0.222100 0.181118 0.664758 -0.508835
C28   C     C_3   0.777901 0.681117 0.335242 -0.508835
C29   C     C_3   0.172687 0.177696 0.714424 0.268103
C30   C     C_3   0.827314 0.677694 0.285576 0.268104
C31   C     C_1   0.342405 0.144182 0.665076 0.029480
C32   C     C_1   0.657595 0.644184 0.334924 0.029476
C33   C     C_1   0.162064 0.112154 0.840770 0.069327
C34   C     C_1   0.837936 0.612152 0.159230 0.069325
C35   C     C_1   0.122000 0.108609 0.876908 -0.166806
C36   C     C_1   0.878000 0.608607 0.123092 -0.166807
H5    H     H_    0.158291 0.322907 0.717630 0.109809
H6    H     H_    0.841711 0.822904 0.282370 0.109808
H7    H     H_    0.221360 0.319755 0.640576 0.138220
H8    H     H_    0.778641 0.819755 0.359424 0.138220
H9    H     H_    0.241619 0.395794 0.818581 0.044847
H10   H     H_    0.758383 0.895796 0.181419 0.044847
H11   H     H_    0.312195 0.412191 0.752470 0.081792
H12   H     H_    0.687808 0.912195 0.247529 0.081794
H13   H     H_    0.207414 0.088521 0.616190 0.206738
H14   H     H_    0.792586 0.588521 0.383810 0.206737
O11   O     O_R   0.942270 0.764870 0.056240 -0.533850
O12   O     O_R   0.057730 0.264870 0.943760 -0.533850
O13   O     O_R   0.078640 0.431230 0.084780 -0.533123
O14   O     O_R   0.921360 0.931230 0.915220 -0.533123
C37   C     C_R   0.103570 0.599684 0.105470 0.704862
C38   C     C_R   0.896430 0.099684 0.894530 0.704862
O15   O     O_R   0.944030 0.435400 0.064960 -0.533144
O16   O     O_R   0.055970 0.935400 0.935040 -0.533143
O17   O     O_R   0.922190 0.260960 0.923840 -0.527880
O18   O     O_R   0.077810 0.760960 0.076160 -0.527880
C39   C     C_R   0.924713 0.603160 0.078731 0.710083
C40   C     C_R   0.075287 0.103160 0.921268 0.710083
O19   O     O_3   0.993030 0.592980 0.953770 -0.376320
O20   O     O_3   0.006970 0.092980 0.046230 -0.376321
V3    V     V_3+5 0.001290 0.319740 0.008580 1.431339
V4    V     V_3+5 0.998710 0.819740 0.991420 1.431339
O21   O     O_3   0.387663 0.238418 0.818999 -0.560254
C41   C     C_3   0.430798 0.386236 0.817088 -0.294395
H15   H     H_    0.415565 0.510105 0.842003 0.133163
H16   H     H_    0.432000 0.412452 0.759307 0.144865
H17   H     H_    0.483312 0.350708 0.850916 0.167532
O22   O     O_3   0.612338 0.738425 0.181000 -0.560254
C42   C     C_3   0.569202 0.886239 0.182919 -0.294381
H18   H     H_    0.584434 0.010114 0.158004 0.133164
H19   H     H_    0.568005 0.912446 0.240702 0.144862
H20   H     H_    0.516686 0.850712 0.149092 0.167527
C43   C     C_R   0.300821 0.259035 0.915154 0.220874
C44   C     C_R   0.362510 0.169276 0.953063 0.031970
C45   C     C_R   0.387846 0.172190 0.030807 -0.187766
C46   C     C_R   0.351915 0.260471 0.072859 -0.091247
C47   C     C_R   0.289817 0.343162 0.037326 -0.115522
C48   C     C_R   0.264307 0.340888 0.959678 -0.202259
H21   H     H_    0.390408 0.087585 0.924557 0.177942
H22   H     H_    0.435062 0.102962 0.058571 0.107021
H23   H     H_    0.371571 0.261790 0.133040 0.113844
H24   H     H_    0.261072 0.408461 0.069961 0.118947
H25   H     H_    0.215201 0.403040 0.934324 0.107622
C49   C     C_R   0.699180 0.759037 0.084846 0.220874
C50   C     C_R   0.637489 0.669279 0.046937 0.031973
C51   C     C_R   0.612154 0.672192 0.969192 -0.187766
C52   C     C_R   0.648085 0.760472 0.927141 -0.091245
C53   C     C_R   0.710183 0.843162 0.962673 -0.115526
C54   C     C_R   0.735694 0.840888 0.040321 -0.202263
H26   H     H_    0.609591 0.587589 0.075443 0.177942
H27   H     H_    0.564938 0.602965 0.941428 0.107019
H28   H     H_    0.628429 0.761790 0.866959 0.113843
H29   H     H_    0.738929 0.908460 0.930038 0.118947
H30   H     H_    0.784801 0.903039 0.065675 0.107624
O23   O     O_3   0.285220 0.895101 0.870792 -0.566579
C55   C     C_3   0.289222 0.708684 0.884802 -0.297734
H31   H     H_    0.312683 0.638215 0.846521 0.141737
H32   H     H_    0.237627 0.656559 0.880387 0.147063
H33   H     H_    0.322313 0.686058 0.942552 0.186838
O24   O     O_3   0.714778 0.395101 0.129208 -0.566581
C56   C     C_3   0.710783 0.208684 0.115195 -0.297721
H34   H     H_    0.687317 0.138203 0.153469 0.141743
H35   H     H_    0.762381 0.156568 0.119616 0.147049
H36   H     H_    0.677700 0.186062 0.057441 0.186840
O25   O     O_3   0.272089 0.807749 0.687957 -0.578986
C57   C     C_3   0.325870 0.716536 0.670441 -0.287863
H37   H     H_    0.368992 0.682056 0.720103 0.111726
H38   H     H_    0.344181 0.796332 0.630352 0.173476
H39   H     H_    0.305858 0.586866 0.642146 0.159374
O26   O     O_3   0.727909 0.307749 0.312043 -0.578986
C58   C     C_3   0.674128 0.216539 0.329559 -0.287860
H40   H     H_    0.631004 0.182067 0.279898 0.111726
H41   H     H_    0.655821 0.296334 0.369651 0.173477
H42   H     H_    0.694138 0.086864 0.357851 0.159372
O27   O     O_3   0.108076 0.089025 0.686809 -0.544207
C59   C     C_3   0.104467 0.946435 0.635675 -0.205251
H43   H     H_    0.148129 0.852132 0.653052 0.170204
H44   H     H_    0.098256 0.002127 0.579136 0.142713
H45   H     H_    0.058215 0.864950 0.632158 0.153999
O28   O     O_3   0.891923 0.589019 0.313191 -0.544206
C60   C     C_3   0.895532 0.446431 0.364326 -0.205253
H46   H     H_    0.851869 0.352130 0.346949 0.170205
H47   H     H_    0.901743 0.502124 0.420864 0.142714
H48   H     H_    0.941782 0.364942 0.367843 0.153999

loop_
_geom_bond_atom_site_label_1
_geom_bond_atom_site_label_2
_ccdc_geom_bond_type
O14   C38   A    
C54   H30   S    
C18   O26   S    
C3    C6    S    
C47   C48   A    
C24   H12   S    
O16   V4    S    
O12   V3    S    
C24   O22   S    
O15   V3    S    
O23   C55   S    
O1    C3    A    
C35   C40   S    
O2    C4    A    
C2    O7    A    
C55   H32   S    
C44   H21   S    
C23   C25   S    
C42   H18   S    
O24   C56   S    
O5    C3    A    
C60   H47   S    
C49   C54   A    
C50   C51   A    
C13   H9    S    
C7    C9    S    
C56   H35   S    
C53   H29   S    
C15   C17   S    
C1    C20   S    
C17   H3    S    
C2    C19   S    
C37   O18   A    
C43   C48   A    
C53   C54   A    
O18   V4    S    
C16   O24   S    
C12   C37   S    
C13   C21   S    
C45   H22   S    
O13   C37   A    
C59   H43   S    
C33   C35   T    
C17   O25   S    
C4    C5    S    
O16   C40   A    
C34   C36   T    
O15   C39   A    
C52   H28   S    
C24   C26   S    
C15   O23   S    
O6    V2    S    
C25   C27   S    
C26   C28   S    
C41   H17   S    
C55   H31   S    
C28   C30   S    
C46   H23   S    
C42   H19   S    
O14   V4    S    
C60   H48   S    
O13   V3    S    
C18   H4    S    
C15   H1    S    
C59   H45   S    
C16   H2    S    
O20   V3    S    
C41   H16   S    
C36   C39   S    
C56   H36   S    
C45   C46   A    
C14   C22   S    
O11   C39   A    
C28   H14   S    
C29   H5    S    
C23   O21   S    
C11   C38   S    
O4    V2    S    
C58   H41   S    
C21   C33   S    
C28   H8    S    
C16   C22   S    
O6    C4    A    
C23   H11   S    
C30   H6    S    
C25   C31   S    
C51   H27   S    
O1    V2    S    
C26   C32   S    
O22   C42   S    
O2    V1    S    
C14   H10   S    
O25   C57   S    
O4    C2    A    
C8    C10   S    
C29   O27   S    
C9    C11   T    
C10   C12   T    
C57   H38   S    
O27   C59   S    
O17   V3    S    
O3    V1    S    
C27   H13   S    
C42   H20   S    
C27   H7    S    
C50   H26   S    
C17   C25   S    
C18   C26   S    
C41   H15   S    
O3    C1    A    
C38   O17   A    
C22   C34   S    
C60   H46   S    
C13   C43   S    
C57   H39   S    
C16   C18   S    
C43   C44   A    
C58   H42   S    
C1    O8    A    
C27   C29   S    
O8    V2    S    
C56   H34   S    
C13   C23   S    
C14   C24   S    
C44   C45   A    
C48   H25   S    
C15   C21   S    
O26   C58   S    
O5    V1    S    
C46   C47   A    
C5    C7    T    
C20   C32   T    
C6    C8    T    
O7    V1    S    
C51   C52   A    
O19   V4    S    
C22   C30   S    
C30   O28   S    
O21   C41   S    
C59   H44   S    
O9    V2    S    
C52   C53   A    
C57   H37   S    
O12   C40   A    
O10   V1    S    
O28   C60   S    
C49   C50   A    
C19   C31   T    
C21   C29   S    
C47   H24   S    
C55   H33   S    
C58   H40   S    
C14   C49   S    
O11   V4    S    
