data_mof_unit_pretest_139.cif
_audit_creation_date              2012-12-11T15:49:23-0500
_audit_creation_method            fapswitch 2.2
_symmetry_space_group_name_H-M    P1
_symmetry_Int_Tables_number       1
_space_group_crystal_system       triclinic
_cell_length_a                    8.245253
_cell_length_b                    18.996779
_cell_length_c                    27.014918
_cell_angle_alpha                 94.793599
_cell_angle_beta                  92.864304
_cell_angle_gamma                 85.517629
_cell_volume                      4199.71617279

loop_
_atom_site_label
_atom_site_type_symbol
_atom_type_description
_atom_site_fract_x
_atom_site_fract_y
_atom_site_fract_z
_atom_type_partial_charge
Ba1   Ba    Ba6+2 0.854000 0.466860 0.523710 1.643780
Ba2   Ba    Ba6+2 0.335820 0.533080 0.476290 1.640998
C1    C     C_3   0.710321 0.205033 0.659619 -0.357928
C2    C     C_3   0.671244 0.276880 0.639157 0.358075
C3    C     C_3   0.520011 0.631886 0.625866 0.294481
C4    C     C_3   0.522475 0.648188 0.681950 -0.353670
C5    C     C_3   0.067969 0.685750 0.339029 0.334566
C6    C     C_3   0.086884 0.706084 0.286467 -0.303016
C7    C     C_3   0.527761 0.723934 0.361536 0.358030
C8    C     C_3   0.486531 0.796554 0.342467 -0.361854
C9    C     C_R   0.986453 0.447319 0.178767 0.614351
C10   C     C_R   0.922337 0.572397 0.177675 0.575947
C11   C     C_2   0.761305 0.551356 0.272162 -0.081526
C12   C     C_3   0.134493 0.311525 0.660096 0.332047
C13   C     C_3   0.743978 0.572659 0.326724 -0.050557
C14   C     C_1   0.980789 0.489977 0.343077 0.032612
C15   C     C_2   0.018438 0.485661 0.295240 -0.104304
C16   C     C_2   0.901021 0.516253 0.256416 0.197009
C17   C     C_R   0.008157 0.504380 0.101500 -0.083527
C18   C     C_R   0.020635 0.442808 0.127495 -0.083051
C19   C     C_R   0.057790 0.377404 0.101048 -0.041077
C20   C     C_R   0.957805 0.569467 0.126869 -0.013339
C21   C     C_2   0.850160 0.527352 0.360225 -0.290480
C22   C     C_2   0.347814 0.478810 0.640813 -0.283261
C23   C     C_3   0.124944 0.288412 0.712300 -0.324251
C24   C     C_R   0.153614 0.434551 0.975550 0.032578
C25   C     C_R   0.050942 0.559111 0.971750 0.022848
C26   C     C_R   0.121877 0.495362 0.948297 0.048982
C27   C     C_R   0.250853 0.377216 0.953508 -0.049831
C28   C     C_R   0.292390 0.374777 0.903985 -0.045126
C29   C     C_R   0.246300 0.431499 0.874933 -0.031006
C30   C     C_R   0.164899 0.492753 0.897402 -0.081627
C31   C     C_R   0.128763 0.551642 0.869291 -0.033562
C32   C     C_R   0.172162 0.548118 0.818889 0.598864
C33   C     C_R   0.284337 0.428591 0.824304 0.581580
C34   C     C_3   0.187362 0.317883 0.419296 0.314265
C35   C     C_2   0.430413 0.450974 0.727840 -0.087163
C36   C     C_3   0.447988 0.429877 0.673189 -0.048792
C37   C     C_1   0.210018 0.510938 0.656952 0.030750
C38   C     C_2   0.167370 0.510961 0.704115 -0.103362
C39   C     C_2   0.286500 0.482534 0.743486 0.188790
C40   C     C_R   0.097597 0.434968 0.024909 -0.013595
C41   C     C_R   0.043750 0.500842 0.049952 0.022889
C42   C     C_R   0.022507 0.563154 0.023711 0.031944
C43   C     C_R   0.088589 0.372541 0.050352 0.238268
C44   C     C_R   0.942982 0.630732 0.100954 -0.057504
C45   C     C_3   0.196705 0.238027 0.407351 -0.379080
C46   C     C_R   0.012984 0.616948 0.942294 -0.098700
C47   C     C_R   0.050759 0.613134 0.892300 -0.055291
C48   C     C_R   0.974417 0.627764 0.050659 -0.098952
C49   C     C_R   0.400931 0.299224 0.523612 -0.291330
C50   C     C_R   0.538281 0.276553 0.497027 0.067398
C51   C     C_R   0.590057 0.204484 0.491959 -0.124425
C52   C     C_R   0.502214 0.154286 0.512680 -0.017854
C53   C     C_R   0.358849 0.177831 0.537590 -0.136994
C54   C     C_R   0.307056 0.250136 0.541938 0.010400
C55   C     C_R   0.548334 0.034016 0.545434 -0.075897
C56   C     C_3   0.007734 0.682248 0.580250 0.312823
C57   C     C_R   0.598952 0.961907 0.539415 -0.076008
C58   C     C_R   0.657829 0.931260 0.493882 0.058942
C59   C     C_R   0.667058 0.974848 0.454750 -0.076498
C60   C     C_R   0.616612 0.047078 0.460803 -0.074772
C61   C     C_R   0.556125 0.077502 0.506196 0.061962
C62   C     C_R   0.846247 0.827562 0.461763 -0.133471
C63   C     C_R   0.891444 0.754468 0.457602 0.015487
C64   C     C_R   0.658838 0.733200 0.503701 0.039852
C65   C     C_R   0.612689 0.805648 0.508244 -0.118537
C66   C     C_R   0.705154 0.853852 0.487094 -0.010891
C67   C     C_3   0.996405 0.762046 0.592608 -0.381478
C68   C     C_R   0.793406 0.707742 0.476694 -0.286179
C69   C     C_3   0.670922 0.382096 0.375915 0.295068
C70   C     C_3   0.665136 0.365780 0.319803 -0.347488
H1    H     H_    0.717975 0.274598 0.601123 0.078006
H2    H     H_    0.276731 0.223023 0.375710 0.130027
H3    H     H_    0.246921 0.210591 0.439923 0.062216
H4    H     H_    0.073061 0.220459 0.397383 0.129108
H5    H     H_    0.885551 0.664946 0.569483 0.000100
H6    H     H_    0.089577 0.669246 0.548918 0.070401
H7    H     H_    0.908671 0.776722 0.622302 0.131949
H8    H     H_    0.954858 0.789866 0.559368 0.063385
H9    H     H_    0.117910 0.779551 0.605540 0.127485
H10   H     H_    0.795591 0.394426 0.388541 0.009595
H11   H     H_    0.584481 0.428621 0.384923 0.079671
H12   H     H_    0.843399 0.190818 0.660155 0.150805
H13   H     H_    0.755996 0.321398 0.309428 0.138663
H14   H     H_    0.692932 0.412969 0.301206 0.072533
H15   H     H_    0.541637 0.350936 0.306700 0.135258
H16   H     H_    0.536413 0.286576 0.637010 -0.065982
H17   H     H_    0.648358 0.163924 0.635689 0.066845
H18   H     H_    0.394522 0.620493 0.612786 0.018356
H19   H     H_    0.604646 0.584434 0.617511 0.070828
H20   H     H_    0.435864 0.694435 0.691714 0.135577
H21   H     H_    0.486412 0.601822 0.700073 0.072712
H22   H     H_    0.647005 0.660175 0.696027 0.135007
H23   H     H_    0.667020 0.206193 0.697972 0.126171
H24   H     H_    0.146052 0.333791 0.739632 0.126719
H25   H     H_    0.145489 0.636116 0.344199 0.093076
H26   H     H_    0.938516 0.676693 0.343366 -0.051115
H27   H     H_    0.199600 0.733621 0.284029 0.145866
H28   H     H_    0.095918 0.657508 0.260783 0.123863
H29   H     H_    0.980923 0.741645 0.274860 0.122108
H30   H     H_    0.662420 0.713640 0.361497 -0.065236
H31   H     H_    0.487461 0.725455 0.400286 0.075652
H32   H     H_    0.553938 0.836700 0.365642 0.068424
H33   H     H_    0.354219 0.811590 0.344541 0.150963
H34   H     H_    0.057248 0.361832 0.657345 0.085763
H35   H     H_    0.522064 0.796137 0.303324 0.122398
H36   H     H_    0.135238 0.460663 0.284060 0.123176
H37   H     H_    0.054748 0.328856 0.119266 0.163552
H38   H     H_    0.524764 0.432377 0.754095 0.125067
H39   H     H_    0.363946 0.328464 0.888770 0.137048
H40   H     H_    0.303343 0.334981 0.974825 0.140149
H41   H     H_    0.671126 0.572870 0.245724 0.115443
H42   H     H_    0.906518 0.681838 0.119582 0.124052
H43   H     H_    0.950785 0.665855 0.956592 0.074472
H44   H     H_    0.263117 0.320346 0.654054 -0.054811
H45   H     H_    0.018959 0.659144 0.871683 0.125389
H46   H     H_    0.045940 0.531242 0.714315 0.136092
H47   H     H_    0.963439 0.677700 0.034146 0.073629
H48   H     H_    0.834465 0.537352 0.399893 0.083884
H49   H     H_    0.377098 0.477578 0.602020 0.080202
H50   H     H_    0.506551 0.824236 0.528993 0.075953
H51   H     H_    0.593288 0.930197 0.570689 0.065773
H52   H     H_    0.504932 0.055988 0.581065 0.065251
H53   H     H_    0.697665 0.187724 0.471409 0.085288
H54   H     H_    0.709870 0.952754 0.419077 0.065865
H55   H     H_    0.002750 0.270645 0.717944 0.149235
H56   H     H_    0.621995 0.078855 0.429554 0.064593
H57   H     H_    0.924006 0.863671 0.447326 0.078306
H58   H     H_    0.284281 0.140097 0.551589 0.079548
H59   H     H_    0.829462 0.651588 0.474063 0.062942
H60   H     H_    0.359800 0.354851 0.526577 0.070562
H61   H     H_    0.218330 0.244356 0.718678 0.120638
H62   H     H_    0.311266 0.334725 0.428093 0.002809
H63   H     H_    0.110321 0.331322 0.451788 0.065068
N1    N     N_R   0.938563 0.511828 0.203637 -0.422116
N2    N     N_R   0.247242 0.486564 0.796276 -0.422103
O1    O     O_2   0.913240 0.537010 0.617740 -0.457519
O2    O     O_3   0.628871 0.322576 0.398203 -0.634021
O3    O     O_3   0.078421 0.258586 0.625594 -0.600122
O4    O     O_2   0.276450 0.462960 0.382230 -0.462109
O5    O     O_3   0.044470 0.462980 0.442430 -0.494266
O6    O     O_3   0.519740 0.589470 0.411120 -0.475726
O7    O     O_3   0.121036 0.350151 0.377518 -0.622817
O8    O     O_3   0.632420 0.583650 0.524140 -0.476908
O9    O     O_3   0.111040 0.625070 0.435230 -0.492739
O10   O     O_2   0.228622 0.750127 0.464673 -0.482615
O11   O     O_3   0.116672 0.740622 0.373125 -0.603079
O12   O     O_3   0.145240 0.536960 0.557560 -0.492656
O13   O     O_3   0.557280 0.416300 0.475860 -0.489030
O14   O     O_2   0.376710 0.670070 0.522470 -0.456663
O15   O     O_3   0.568286 0.690603 0.603612 -0.640789
O16   O     O_2   0.414227 0.535126 0.321903 -0.497483
O17   O     O_3   0.447848 0.672264 0.331047 -0.595457
O18   O     O_2   0.996425 0.393522 0.200906 -0.587250
O19   O     O_2   0.349194 0.373693 0.805156 -0.612561
O20   O     O_2   0.876756 0.629355 0.198773 -0.622000
O21   O     O_2   0.145283 0.600441 0.795507 -0.595785
O22   O     O_3   0.669960 0.410470 0.588880 -0.481835
O23   O     O_2   0.776441 0.466855 0.677505 -0.494142
O24   O     O_3   0.067829 0.649756 0.622586 -0.624115
O25   O     O_3   0.745588 0.329580 0.670228 -0.594241
O26   O     O_2   0.812980 0.329910 0.477500 -0.460299
O27   O     O_3   0.078660 0.374870 0.564770 -0.492390
O28   O     O_2   0.970265 0.248967 0.533320 -0.484781
P1    P     P_3+3 0.082480 0.557670 0.610090 0.996470
P2    P     P_3+3 0.635220 0.340300 0.462910 0.986561
P3    P     P_3+3 0.108085 0.282558 0.565826 0.944050
P4    P     P_3+3 0.107220 0.442270 0.389900 0.994627
P5    P     P_3+3 0.087183 0.717692 0.433175 0.944297
P6    P     P_3+3 0.661438 0.411952 0.653335 0.951451
P7    P     P_3+3 0.561166 0.671547 0.539050 0.950272
P8    P     P_3+3 0.530327 0.589136 0.346847 0.942604
Br1   Br    Br    0.073368 0.278836 0.017808 -0.567418

loop_
_geom_bond_atom_site_label_1
_geom_bond_atom_site_label_2
_ccdc_geom_bond_type
C25   C46   A    
O3    P3    S    
C38   H46   S    
C53   C54   A    
C65   H50   S    
Ba2   O13   S    
C5    H26   S    
O16   P8    D    
C27   H40   S    
Ba1   O8    S    
C17   C18   A    
C70   H13   S    
C5    C6    S    
C64   C68   A    
C51   C52   A    
Ba2   O8    S    
C27   C28   A    
C3    O15   S    
O22   P6    S    
C11   C16   D    
C62   C66   A    
Ba1   O22   S    
C64   P7    S    
C6    H27   S    
C45   H4    S    
C49   C54   A    
C50   P2    S    
C28   C29   A    
O15   P7    S    
C4    H20   S    
C55   C57   A    
C52   C61   S    
Ba1   P2    S    
C31   C47   A    
C63   C68   A    
C23   H55   S    
O9    P5    S    
C10   C20   A    
C22   C37   D    
C34   C45   S    
Ba1   Ba2   S    
C22   H49   S    
Ba1   O5    S    
C56   H5    S    
C25   C42   A    
C69   H11   S    
C47   H45   S    
O25   P6    S    
Ba1   O27   S    
C14   C15   D    
C4    H22   S    
C22   C36   S    
Ba1   O12   S    
C59   H54   S    
C10   O20   D    
C23   H61   S    
C7    C8    S    
C39   N2    S    
O24   P1    S    
O10   P5    D    
C9    O18   D    
C69   H10   S    
C4    H21   S    
Ba2   O12   S    
C13   C21   S    
C64   C65   A    
O8    P7    S    
C57   C58   A    
Ba2   O6    S    
C8    H35   S    
C14   P4    S    
C17   C41   A    
C55   C61   A    
C19   C43   A    
C57   H51   S    
C9    C18   A    
C36   P6    S    
C13   P8    S    
C49   C50   A    
C26   C30   A    
C17   C20   A    
C33   O19   D    
C15   H36   S    
C21   H48   S    
C44   H42   S    
C7    H30   S    
C69   O2    S    
C1    H12   S    
O7    P4    S    
O14   P7    D    
C65   C66   A    
C58   C59   A    
C40   C43   A    
C35   C36   S    
O26   P2    D    
C41   C42   A    
C60   C61   A    
O11   P5    S    
C29   C30   A    
O27   P3    S    
C7    H31   S    
C53   H58   S    
C54   P3    S    
O4    P4    D    
C15   C16   S    
C35   H38   S    
Ba1   O13   S    
C18   C19   A    
C16   N1    S    
Ba1   O26   S    
C2    H1    S    
C3    H19   S    
C51   H53   S    
C24   C27   A    
C46   H43   S    
C32   O21   D    
C38   C39   S    
C20   C44   A    
C12   O3    S    
C7    O17   S    
C14   C21   D    
O5    P4    S    
Ba2   O5    S    
C2    O25   S    
C67   H7    S    
Ba2   O9    S    
C40   C41   A    
O6    P8    S    
C1    C2    S    
C34   H63   S    
C37   C38   D    
C70   H15   S    
C50   C51   A    
C24   C40   A    
O2    P2    S    
C5    O11   S    
C6    H29   S    
C42   C48   A    
Ba2   O14   S    
C52   C53   A    
C46   C47   A    
C5    H25   S    
O17   P8    S    
O12   P1    S    
C3    H18   S    
C45   H2    S    
C67   H8    S    
C34   H62   S    
C19   H37   S    
C49   H60   S    
C56   C67   S    
C2    H16   S    
C70   H14   S    
O28   P3    D    
C44   C48   A    
C32   N2    Am   
C24   C26   A    
O1    P1    D    
C28   H39   S    
C1    H17   S    
C30   C31   A    
C37   P1    S    
C11   C13   S    
C34   O7    S    
C45   H3    S    
C69   C70   S    
C9    N1    Am   
C62   C63   A    
C55   H52   S    
C60   H56   S    
C6    H28   S    
C3    C4    S    
Ba1   P1    S    
C12   H44   S    
O13   P2    S    
C8    H32   S    
C68   H59   S    
O23   P6    D    
C31   C32   A    
C29   C33   A    
C12   C23   S    
C35   C39   D    
C59   C60   A    
C11   H41   S    
C67   H9    S    
C56   H6    S    
Ba2   P4    S    
C48   H47   S    
C12   H34   S    
C62   H57   S    
C58   C66   S    
C23   H24   S    
C10   N1    Am   
C63   P5    S    
C25   C26   A    
Ba2   O4    S    
C8    H33   S    
C1    H23   S    
C43   Br1   S    
C56   O24   S    
C33   N2    Am   
Ba1   O1    S    
