data_mof_unit_pretest_775.cif
_audit_creation_date              2012-12-10T17:02:12-0500
_audit_creation_method            fapswitch 2.2
_symmetry_space_group_name_H-M    P1
_symmetry_Int_Tables_number       1
_space_group_crystal_system       triclinic
_cell_length_a                    10.799073
_cell_length_b                    10.668066
_cell_length_c                    10.132326
_cell_angle_alpha                 93.278218
_cell_angle_beta                  90.86015
_cell_angle_gamma                 90.071967
_cell_volume                      1165.25281461

loop_
_atom_site_label
_atom_site_type_symbol
_atom_type_description
_atom_site_fract_x
_atom_site_fract_y
_atom_site_fract_z
_atom_type_partial_charge
C1    C     C_R   0.498979 0.263118 0.495853 0.912703
C2    C     C_2   0.494871 0.130887 0.482869 -0.365571
C3    C     C_2   0.547238 0.590440 0.931988 0.552563
C4    C     C_R   0.260863 0.512795 0.500610 0.914223
C5    C     C_2   0.559542 0.581523 0.080485 -0.027751
C6    C     C_R   0.505360 0.737883 0.504239 0.799747
C7    C     C_R   0.740054 0.498219 0.500233 0.922727
C8    C     C_R   0.112146 0.555945 0.752760 0.579324
C9    C     C_R   0.060396 0.496991 0.858994 -0.324840
C10   C     C_R   0.962693 0.412006 0.836585 0.491251
C11   C     C_R   0.902427 0.405946 0.713149 -0.251025
C12   C     C_R   0.063405 0.528692 0.623516 -0.105028
C13   C     C_R   0.944250 0.479354 0.612410 -0.109176
C14   C     C_3   0.086962 0.408791 0.207234 -0.202048
C15   C     C_3   0.720063 0.699266 0.880470 0.065038
C16   C     C_3   0.767135 0.792503 0.784717 -0.730392
C17   C     C_3   0.616721 0.331402 0.889973 0.145165
C18   C     C_3   0.608621 0.188779 0.879466 -0.793490
C19   C     C_3   0.380768 0.332462 0.128722 0.006141
C20   C     C_3   0.145586 0.760730 0.812533 -0.374300
C21   C     C_3   0.965717 0.222654 0.925488 -0.413432
C22   C     C_3   0.860592 0.723892 0.294391 -0.318681
C23   C     C_R   0.128409 0.536686 0.503711 -0.287367
C24   C     C_3   0.417796 0.919466 0.707793 -0.263638
C25   C     C_3   0.776690 0.052884 0.317714 -0.354021
C26   C     C_R   0.060549 0.543003 0.384401 0.405404
C27   C     C_R   0.932822 0.552512 0.390107 0.406463
C28   C     C_R   0.873612 0.505157 0.499675 -0.248319
C29   C     C_2   0.569750 0.928833 0.411883 -0.432345
C30   C     C_2   0.529220 0.871185 0.517425 0.317882
C31   C     C_2   0.583092 0.065894 0.417742 0.611777
H1    H     H_    0.414939 0.087285 0.524602 0.118131
H2    H     H_    0.754497 0.729660 0.980964 0.124339
H3    H     H_    0.729689 0.887495 0.810664 0.270567
H4    H     H_    0.869689 0.796728 0.790084 0.166317
H5    H     H_    0.738614 0.762680 0.682008 0.257514
H6    H     H_    0.669594 0.360793 0.981429 0.160489
H7    H     H_    0.666615 0.361839 0.803922 0.169044
H8    H     H_    0.562168 0.157122 0.785274 0.287865
H9    H     H_    0.703005 0.147960 0.881092 0.217138
H10   H     H_    0.555959 0.153770 0.963021 0.231938
H11   H     H_    0.330456 0.327023 0.222092 0.145513
H12   H     H_    0.623296 0.645058 0.133788 0.095955
H13   H     H_    0.470926 0.282556 0.135826 0.147167
H14   H     H_    0.325173 0.280477 0.050483 0.106873
H15   H     H_    0.079984 0.752930 0.895522 0.167963
H16   H     H_    0.097426 0.798187 0.725334 0.152982
H17   H     H_    0.217083 0.829631 0.847771 0.181108
H18   H     H_    0.068815 0.222770 0.930769 0.166961
H19   H     H_    0.932693 0.172696 0.832048 0.174275
H20   H     H_    0.931954 0.169477 0.008806 0.192574
H21   H     H_    0.808659 0.757483 0.208395 0.161596
H22   H     H_    0.954137 0.767970 0.294934 0.165072
H23   H     H_    0.097811 0.516798 0.957139 0.206972
H24   H     H_    0.809457 0.755539 0.384940 0.139098
H25   H     H_    0.426733 0.844633 0.778636 0.258559
H26   H     H_    0.337126 0.899857 0.639621 0.121491
H27   H     H_    0.396885 0.007689 0.766265 0.157727
H28   H     H_    0.751339 0.987685 0.232157 0.160194
H29   H     H_    0.812311 0.001098 0.402674 0.161632
H30   H     H_    0.853087 0.113314 0.285851 0.188537
H31   H     H_    0.827383 0.340859 0.693213 0.161695
H32   H     H_    0.585862 0.877245 0.318167 0.148523
H33   H     H_    0.987202 0.400087 0.180107 0.228533
H34   H     H_    0.112906 0.334373 0.275355 0.090288
H35   H     H_    0.139545 0.390683 0.115847 0.186036
H36   H     H_    0.760041 0.605584 0.851418 0.148052
N1    N     N_2   0.501340 0.501330 0.852150 0.085474
N2    N     N_2   0.501380 0.501360 0.147810 0.074325
O1    O     O_R   0.499980 0.319060 0.613040 -0.602239
O2    O     O_3   0.589155 0.698103 0.877022 -0.631686
O3    O     O_3   0.496820 0.383476 0.894513 -0.530081
O4    O     O_3   0.393537 0.458138 0.094155 -0.485553
O5    O     O_3   0.203549 0.645419 0.777326 -0.563695
O6    O     O_3   0.918221 0.345660 0.938640 -0.627357
O7    O     O_3   0.867991 0.591858 0.281355 -0.569218
O8    O     O_3   0.531138 0.934400 0.642022 -0.613684
O9    O     O_3   0.675688 0.130308 0.353925 -0.597472
O10   O     O_R   0.500020 0.319100 0.386900 -0.625928
O11   O     O_R   0.316750 0.499980 0.613090 -0.568913
O12   O     O_R   0.316790 0.500020 0.386950 -0.568747
O13   O     O_R   0.499980 0.680900 0.613100 -0.554912
O14   O     O_R   0.500020 0.680940 0.386960 -0.645119
O15   O     O_R   0.683210 0.499980 0.613050 -0.662783
O16   O     O_R   0.683250 0.500020 0.386910 -0.560781
O17   O     O_3   0.115956 0.530426 0.262309 -0.556138
Zn1   Zn    Zn3+2 0.499970 0.499970 0.650990 1.042091
Zn2   Zn    Zn3+2 0.500030 0.500030 0.349010 1.014715

loop_
_geom_bond_atom_site_label_1
_geom_bond_atom_site_label_2
_ccdc_geom_bond_type
C29   H32   S    
C6    O13   A    
C3    N1    D    
O15   Zn1   S    
C22   O7    S    
C11   H31   S    
C21   H18   S    
C12   C23   A    
C26   C27   A    
C4    O11   A    
O11   Zn1   S    
C16   H4    S    
O13   Zn1   S    
C2    H1    S    
C1    C2    S    
C23   C26   A    
C18   H9    S    
O10   Zn2   S    
C5    N2    D    
C16   H3    S    
C30   O8    S    
C4    O12   A    
C8    C9    A    
C13   C28   A    
N2    O4    S    
C25   H29   S    
C9    C10   A    
C19   H11   S    
N1    O3    S    
O14   Zn2   S    
C5    H12   S    
C14   H33   S    
O1    Zn1   S    
C21   H19   S    
C22   H22   S    
C25   O9    S    
O12   Zn2   S    
C19   O4    S    
C14   O17   S    
C18   H10   S    
C4    C23   S    
C24   H26   S    
C25   H30   S    
C26   O17   S    
C7    C28   S    
C2    C31   D    
C3    O2    S    
C18   H8    S    
C29   C30   D    
C10   O6    S    
C8    C12   A    
C15   H36   S    
C8    O5    S    
C17   C18   S    
C14   H35   S    
C20   O5    S    
C17   H6    S    
C20   H17   S    
N2    Zn2   S    
C6    C30   S    
C1    O10   A    
C27   O7    S    
C21   H20   S    
C19   H13   S    
C31   O9    S    
C22   H21   S    
O16   Zn2   S    
C6    O14   A    
C3    C5    S    
C19   H14   S    
C22   H24   S    
C24   H25   S    
C15   O2    S    
C21   O6    S    
C1    O1    A    
C29   C31   S    
C16   H5    S    
C11   C13   A    
C7    O16   A    
C14   H34   S    
C7    O15   A    
C17   H7    S    
C20   H16   S    
C10   C11   A    
C24   O8    S    
C12   C13   A    
C17   O3    S    
C24   H27   S    
C27   C28   A    
N1    Zn1   S    
C9    H23   S    
C25   H28   S    
C15   H2    S    
C20   H15   S    
C15   C16   S    
