data_mof_unit_pretest_1637.cif
_audit_creation_date              2012-12-10T19:27:51-0500
_audit_creation_method            fapswitch 2.2
_symmetry_space_group_name_H-M    P1
_symmetry_Int_Tables_number       1
_space_group_crystal_system       triclinic
_cell_length_a                    17.724387
_cell_length_b                    16.438251
_cell_length_c                    10.749462
_cell_angle_alpha                 89.96976
_cell_angle_beta                  90.191234
_cell_angle_gamma                 90.001709
_cell_volume                      3131.92303212

loop_
_atom_site_label
_atom_site_type_symbol
_atom_type_description
_atom_site_fract_x
_atom_site_fract_y
_atom_site_fract_z
_atom_type_partial_charge
C1    C     C_R   0.355204 0.500001 0.499826 0.789490
C2    C     C_1   0.033816 0.500036 0.499718 -0.063112
C3    C     C_R   0.153619 0.573772 0.499331 -0.155425
C4    C     C_R   0.153600 0.426275 0.499610 -0.156978
C5    C     C_R   0.232266 0.573862 0.499349 -0.181360
C6    C     C_R   0.232247 0.426165 0.499628 -0.203153
C7    C     C_R   0.272265 0.500008 0.499593 -0.035996
C8    C     C_R   0.500301 0.499901 0.259311 0.829156
C9    C     C_R   0.114399 0.500028 0.499518 0.148584
C10   C     C_R   0.547672 0.828861 0.579786 -0.268543
C11   C     C_R   0.546732 0.171089 0.581285 -0.268309
C12   C     C_3   0.569246 0.547974 0.928315 -0.394376
C13   C     C_R   0.546824 0.743013 0.578382 0.072570
C14   C     C_R   0.545906 0.256937 0.579845 0.080195
C15   C     C_R   0.453111 0.743065 0.421568 0.095545
C16   C     C_R   0.454047 0.256990 0.420073 0.106679
C17   C     C_R   0.452278 0.828913 0.420136 -0.269155
C18   C     C_R   0.453235 0.171143 0.418610 -0.267442
C19   C     C_R   0.499980 0.873057 0.499952 0.141432
C20   C     C_R   0.499985 0.126946 0.499944 0.143360
C21   C     C_1   0.499984 0.962699 0.499945 -0.036608
C22   C     C_1   0.499986 0.037305 0.499942 -0.036333
C23   C     C_R   0.846365 0.573772 0.500387 -0.155919
C24   C     C_R   0.644779 0.500002 0.500130 0.794387
C25   C     C_R   0.500423 0.499855 0.740592 0.812372
C26   C     C_3   0.426444 0.538095 0.070858 0.395056
C27   C     C_3   0.506187 0.410781 0.071087 0.413090
C28   C     C_3   0.426994 0.538662 0.927177 -0.413950
C29   C     C_3   0.505498 0.410889 0.928468 -0.421198
C30   C     C_3   0.568939 0.548688 0.071861 -0.323196
C31   C     C_3   0.500585 0.499506 0.121466 -0.053584
C32   C     C_3   0.500578 0.499368 0.878189 -0.000178
C33   C     C_R   0.846375 0.426275 0.500100 -0.155103
C34   C     C_R   0.767718 0.573863 0.500460 -0.200742
C35   C     C_R   0.767728 0.426166 0.500173 -0.178248
C36   C     C_R   0.727716 0.500010 0.500270 -0.038278
C37   C     C_R   0.885580 0.500028 0.500157 0.148106
C38   C     C_1   0.966164 0.500036 0.499923 -0.062619
Cu1   Cu    Cu3+1 0.499980 0.580420 0.499990 0.953880
Cu2   Cu    Cu3+1 0.499980 0.419580 0.499990 0.956487
F1    F     F_    0.417903 0.617023 0.114297 -0.662722
F2    F     F_    0.571732 0.373521 0.113438 -0.646510
H1    H     H_    0.261646 0.631634 0.499211 0.153129
H2    H     H_    0.416287 0.139583 0.354317 0.134360
H3    H     H_    0.377241 0.502038 0.103862 0.049045
H4    H     H_    0.457338 0.374368 0.104772 0.062417
H5    H     H_    0.377127 0.504622 0.891471 0.118092
H6    H     H_    0.456346 0.374725 0.894909 0.137917
H7    H     H_    0.422125 0.602265 0.892437 0.226072
H8    H     H_    0.557440 0.380789 0.892977 0.217601
H9    H     H_    0.566293 0.612697 0.105251 0.207639
H10   H     H_    0.622610 0.522265 0.107613 0.193771
H11   H     H_    0.567500 0.611711 0.893369 0.183105
H12   H     H_    0.261613 0.368386 0.499717 0.149524
H13   H     H_    0.622626 0.520142 0.894476 0.168925
H14   H     H_    0.876557 0.631097 0.500472 0.131478
H15   H     H_    0.876574 0.368957 0.499958 0.132578
H16   H     H_    0.738340 0.631634 0.500630 0.150982
H17   H     H_    0.738356 0.368388 0.500109 0.156755
H18   H     H_    0.123431 0.631097 0.499220 0.132055
H19   H     H_    0.123397 0.368958 0.499718 0.131185
H20   H     H_    0.585371 0.860422 0.642881 0.136089
H21   H     H_    0.583686 0.139487 0.645567 0.138358
H22   H     H_    0.583886 0.709833 0.640410 0.115727
H23   H     H_    0.582254 0.290075 0.643011 0.116898
H24   H     H_    0.416019 0.709929 0.359595 0.166148
H25   H     H_    0.417697 0.290168 0.356911 0.109400
H26   H     H_    0.414575 0.860513 0.357046 0.143601
N1    N     N_R   0.499970 0.701220 0.499970 -0.176133
N2    N     N_R   0.499970 0.298780 0.499970 -0.166574
O1    O     O_R   0.391240 0.567930 0.499990 -0.584162
O2    O     O_R   0.391240 0.432070 0.499990 -0.598373
O3    O     O_R   0.499970 0.567910 0.317690 -0.545961
O4    O     O_R   0.499970 0.432090 0.317690 -0.562983
O5    O     O_R   0.608730 0.567880 0.500000 -0.595656
O6    O     O_R   0.608730 0.432120 0.500000 -0.575983
O7    O     O_R   0.500000 0.567910 0.682300 -0.592467
O8    O     O_R   0.500000 0.432090 0.682300 -0.595907

loop_
_geom_bond_atom_site_label_1
_geom_bond_atom_site_label_2
_ccdc_geom_bond_type
C30   H9    S    
C28   H5    S    
C27   C29   S    
C35   C36   A    
C23   H14   S    
C1    O1    A    
Cu2   N2    S    
C25   O7    A    
Cu1   O7    S    
C19   C21   S    
C29   C32   S    
C11   H21   S    
C30   C31   S    
C11   C14   A    
C35   H17   S    
C26   H3    S    
C17   C19   A    
Cu1   O5    S    
C34   C36   A    
C12   H11   S    
C3    H18   S    
C25   C32   S    
C5    H1    S    
C26   C31   S    
C21   C22   T    
C12   C32   S    
C14   N2    A    
C10   H20   S    
C6    H12   S    
C29   H8    S    
C15   N1    A    
C11   C20   A    
C1    O2    A    
C29   H6    S    
C27   C31   S    
C25   O8    A    
C28   C32   S    
C16   N2    A    
C4    C6    A    
Cu1   Cu2   S    
C5    C7    A    
C24   O6    A    
C23   C37   A    
C15   H24   S    
C4    H19   S    
C33   C37   A    
Cu2   O6    S    
C37   C38   S    
C3    C9    A    
C18   H2    S    
C28   H7    S    
C2    C38   T    
C10   C19   A    
C23   C34   A    
C8    O4    A    
Cu1   N1    S    
C16   H25   S    
C24   C36   S    
C27   H4    S    
C20   C22   S    
Cu2   O8    S    
C15   C17   A    
C30   H10   S    
C17   H26   S    
C33   H15   S    
Cu2   O2    S    
C12   C30   S    
C1    C7    S    
C8    C31   S    
C3    C5    A    
C10   C13   A    
C24   O5    A    
C6    C7    A    
C26   C28   S    
C27   F2    S    
C13   H22   S    
C13   N1    A    
C8    O3    A    
C33   C35   A    
C14   H23   S    
Cu2   O4    S    
C18   C20   A    
Cu1   O3    S    
C12   H13   S    
C16   C18   A    
C34   H16   S    
Cu1   O1    S    
C4    C9    A    
C2    C9    S    
C26   F1    S    
