data_mof_unit_pretest_1559.cif
_audit_creation_date              2012-12-10T17:07:32-0500
_audit_creation_method            fapswitch 2.2
_symmetry_space_group_name_H-M    P1
_symmetry_Int_Tables_number       1
_space_group_crystal_system       triclinic
_cell_length_a                    30.698369
_cell_length_b                    30.651684
_cell_length_c                    21.171428
_cell_angle_alpha                 90.022584
_cell_angle_beta                  43.468573
_cell_angle_gamma                 89.995724
_cell_volume                      13705.0537216

loop_
_atom_site_label
_atom_site_type_symbol
_atom_type_description
_atom_site_fract_x
_atom_site_fract_y
_atom_site_fract_z
_atom_type_partial_charge
C1    C     C_R   0.307817 0.809918 0.504000 0.877742
C2    C     C_R   0.609688 0.133301 0.448892 0.078675
C3    C     C_R   0.327665 0.199841 0.620766 -0.167341
C4    C     C_R   0.736796 0.379491 0.640119 -0.175158
C5    C     C_R   0.172028 0.699851 0.379685 -0.167025
C6    C     C_R   0.263567 0.376984 0.355948 -0.174510
C7    C     C_R   0.827469 0.699773 0.620982 -0.167480
C8    C     C_R   0.203980 0.915225 0.698301 -0.139572
C9    C     C_R   0.653571 0.206964 0.336707 -0.144519
C10   C     C_R   0.796093 0.915061 0.301625 -0.139545
C11   C     C_R   0.346287 0.207029 0.663476 -0.144135
C12   C     C_R   0.704350 0.415851 0.696884 -0.139702
C13   C     C_R   0.662861 0.912098 0.435445 0.085606
C14   C     C_R   0.153222 0.707109 0.337246 -0.144379
C15   C     C_R   0.296821 0.412352 0.296437 -0.138877
C16   C     C_R   0.845977 0.706933 0.663850 -0.144050
C17   C     C_R   0.237221 0.950598 0.687440 -0.158092
C18   C     C_R   0.611410 0.178528 0.352044 -0.130408
C19   C     C_R   0.762877 0.950444 0.312422 -0.157931
C20   C     C_R   0.388419 0.178569 0.648194 -0.130441
C21   C     C_R   0.737777 0.451154 0.685772 -0.159508
C22   C     C_R   0.111015 0.678702 0.352643 -0.130122
C23   C     C_R   0.264156 0.447921 0.306515 -0.158021
C24   C     C_R   0.390209 0.133304 0.551261 0.078677
C25   C     C_R   0.888099 0.678482 0.648609 -0.130125
C26   C     C_R   0.303096 0.949290 0.621353 -0.172846
C27   C     C_R   0.589773 0.141872 0.407123 -0.174652
C28   C     C_R   0.697004 0.949193 0.378477 -0.173043
C29   C     C_R   0.410076 0.141884 0.593099 -0.174841
C30   C     C_R   0.803617 0.449564 0.620113 -0.171926
C31   C     C_R   0.089482 0.641996 0.407555 -0.174872
C32   C     C_R   0.198208 0.447516 0.373853 -0.172458
C33   C     C_R   0.909860 0.641832 0.593390 -0.174728
C34   C     C_R   0.506836 0.867643 0.369349 0.140783
C35   C     C_R   0.837530 0.412198 0.563866 0.080571
C36   C     C_R   0.547937 0.892011 0.287731 -0.096758
C37   C     C_R   0.613498 0.887162 0.224850 -0.149101
C38   C     C_R   0.638305 0.857438 0.242297 -0.095667
C39   C     C_R   0.597560 0.832034 0.321937 -0.134123
C40   C     C_R   0.532014 0.836749 0.384703 -0.172656
C41   C     C_R   0.596557 0.046180 0.592060 0.113867
C42   C     C_R   0.535753 0.037663 0.679813 -0.088218
C43   C     C_R   0.523349 0.998430 0.724202 -0.152474
C44   C     C_R   0.571704 0.967823 0.681854 -0.121819
C45   C     C_R   0.632619 0.976520 0.595316 -0.122322
C46   C     C_R   0.109530 0.633354 0.449125 0.077933
C47   C     C_R   0.645116 0.015602 0.550504 -0.184965
C48   C     C_R   0.493253 0.867753 0.630233 0.141016
C49   C     C_R   0.452097 0.891779 0.712360 -0.097340
C50   C     C_R   0.386544 0.887124 0.774899 -0.149094
C51   C     C_R   0.361810 0.857967 0.756527 -0.095463
C52   C     C_R   0.402616 0.832940 0.676277 -0.134094
C53   C     C_R   0.468152 0.837454 0.613863 -0.171530
C54   C     C_R   0.403420 0.046132 0.407970 0.113895
C55   C     C_R   0.464219 0.037577 0.320209 -0.088092
C56   C     C_R   0.476620 0.998345 0.275756 -0.153109
C57   C     C_R   0.163377 0.411024 0.432732 0.086359
C58   C     C_R   0.428270 0.967775 0.318053 -0.121978
C59   C     C_R   0.367362 0.976510 0.404599 -0.122140
C60   C     C_R   0.354865 0.015595 0.449467 -0.184921
C61   C     C_R   0.007015 0.366829 0.369690 0.135244
C62   C     C_R   0.047810 0.391726 0.288757 -0.088132
C63   C     C_R   0.113388 0.386290 0.224309 -0.151049
C64   C     C_R   0.138584 0.355379 0.239313 -0.097780
C65   C     C_R   0.098194 0.329407 0.318115 -0.125641
C66   C     C_R   0.032598 0.334674 0.382518 -0.195928
C67   C     C_R   0.097086 0.545740 0.590912 0.112811
C68   C     C_R   0.890107 0.633276 0.551390 0.078560
C69   C     C_R   0.036261 0.536779 0.678348 -0.095511
C70   C     C_R   0.023755 0.496896 0.721076 -0.132810
C71   C     C_R   0.072087 0.466133 0.677570 -0.108890
C72   C     C_R   0.133096 0.475333 0.591571 -0.131231
C73   C     C_R   0.145629 0.514980 0.548205 -0.185808
C74   C     C_R   0.992347 0.369711 0.635252 0.148414
C75   C     C_R   0.957512 0.368809 0.728434 -0.156068
C76   C     C_R   0.891587 0.364648 0.796308 -0.148098
C77   C     C_R   0.860018 0.361127 0.771718 -0.118333
C78   C     C_R   0.894328 0.361716 0.679215 -0.116893
C79   C     C_R   0.303644 0.877825 0.571206 0.088102
C80   C     C_R   0.960207 0.365891 0.611278 -0.109373
C81   C     C_R   0.903752 0.546236 0.407480 0.114079
C82   C     C_R   0.964644 0.537744 0.319807 -0.087721
C83   C     C_R   0.977221 0.498534 0.275172 -0.153719
C84   C     C_R   0.928957 0.467925 0.317189 -0.121452
C85   C     C_R   0.867955 0.476606 0.403623 -0.119511
C86   C     C_R   0.855279 0.515673 0.448663 -0.184118
C87   C     C_R   0.648227 0.163923 0.439366 0.104106
C88   C     C_R   0.696404 0.877767 0.428723 0.088225
C89   C     C_R   0.692604 0.190052 0.494824 0.879424
C90   C     C_R   0.351697 0.163945 0.560740 0.103995
C91   C     C_R   0.803796 0.377949 0.570850 0.085565
C92   C     C_R   0.148089 0.663947 0.439592 0.104183
C93   C     C_R   0.196520 0.376683 0.426806 0.086396
C94   C     C_R   0.851603 0.663912 0.560842 0.104066
C95   C     C_R   0.338190 0.843004 0.508338 -0.126532
C96   C     C_R   0.662410 0.157118 0.488989 -0.138711
C97   C     C_R   0.661825 0.842998 0.491626 -0.126368
C98   C     C_R   0.337562 0.157125 0.511054 -0.138691
C99   C     C_R   0.838161 0.342907 0.508603 -0.127818
C100  C     C_R   0.692171 0.809915 0.496023 0.877703
C101  C     C_R   0.162388 0.657063 0.489056 -0.138868
C102  C     C_R   0.161547 0.342918 0.492074 -0.123670
C103  C     C_R   0.837581 0.657126 0.511008 -0.138398
C104  C     C_R   0.403717 0.840705 0.443224 -0.261324
C105  C     C_R   0.644467 0.119016 0.538994 -0.244483
C106  C     C_R   0.596296 0.840741 0.556674 -0.261274
C107  C     C_R   0.355518 0.118998 0.461034 -0.244485
C108  C     C_R   0.903611 0.340186 0.444327 -0.254339
C109  C     C_R   0.144693 0.618823 0.538683 -0.245013
C110  C     C_R   0.095889 0.341594 0.558980 -0.263704
C111  C     C_R   0.307389 0.190057 0.505186 0.879660
C112  C     C_R   0.855669 0.619047 0.460807 -0.244759
C113  C     C_R   0.437304 0.873174 0.437681 -0.026623
C114  C     C_R   0.610167 0.087453 0.543992 -0.028720
C115  C     C_R   0.562760 0.873219 0.562119 -0.026545
C116  C     C_R   0.389794 0.087423 0.456071 -0.028742
C117  C     C_R   0.937398 0.372544 0.438608 -0.032827
C118  C     C_R   0.110399 0.587268 0.543600 -0.026825
C119  C     C_R   0.062472 0.373762 0.563233 -0.021615
C120  C     C_R   0.889956 0.587477 0.455831 -0.028670
C121  C     C_R   0.403997 0.908632 0.499525 -0.163807
C122  C     C_R   0.807766 0.309905 0.504125 0.877914
C123  C     C_R   0.592267 0.094858 0.499763 -0.168086
C124  C     C_R   0.596086 0.908640 0.500312 -0.163518
C125  C     C_R   0.407658 0.094841 0.500350 -0.168061
C126  C     C_R   0.904260 0.408401 0.499478 -0.176861
C127  C     C_R   0.092260 0.594847 0.499734 -0.167693
C128  C     C_R   0.096354 0.408332 0.499094 -0.161946
C129  C     C_R   0.907670 0.594848 0.500328 -0.168845
C130  C     C_R   0.939551 0.560776 0.499975 0.893588
C131  C     C_R   0.062152 0.440740 0.499937 0.917544
C132  C     C_R   0.060344 0.560848 0.500054 0.893215
C133  C     C_R   0.192536 0.690034 0.494954 0.879644
C134  C     C_R   0.938615 0.440040 0.499778 0.917369
C135  C     C_R   0.439551 0.060776 0.499978 0.892633
C136  C     C_R   0.561631 0.940259 0.500132 0.932636
C137  C     C_R   0.560423 0.060782 0.500060 0.892527
C138  C     C_R   0.438438 0.940206 0.499820 0.932662
C139  C     C_R   0.335757 0.749993 0.328519 0.873845
C140  C     C_R   0.664254 0.250028 0.671481 0.874882
C141  C     C_R   0.664257 0.750005 0.671479 0.873558
C142  C     C_R   0.335731 0.250016 0.328522 0.874754
C143  C     C_R   0.835757 0.249994 0.328519 0.873617
C144  C     C_R   0.191866 0.309905 0.496601 0.876471
C145  C     C_R   0.164255 0.750029 0.671481 0.874802
C146  C     C_R   0.164254 0.250007 0.671479 0.871945
C147  C     C_R   0.835732 0.750016 0.328521 0.874808
C148  C     C_1   0.386592 0.749951 0.226879 -0.210873
C149  C     C_1   0.613433 0.250130 0.773120 -0.210838
C150  C     C_1   0.613454 0.749976 0.773119 -0.210874
C151  C     C_1   0.386515 0.250108 0.226884 -0.211448
C152  C     C_1   0.886590 0.249952 0.226879 -0.210875
C153  C     C_1   0.113436 0.750130 0.773120 -0.211386
C154  C     C_1   0.113446 0.249982 0.773118 -0.211789
C155  C     C_R   0.807397 0.690057 0.505168 0.879581
C156  C     C_1   0.886519 0.750104 0.226883 -0.211367
C157  C     C_1   0.428907 0.749939 0.142253 -0.004871
C158  C     C_1   0.571113 0.250191 0.857746 -0.004434
C159  C     C_1   0.571153 0.749960 0.857744 -0.004912
C160  C     C_1   0.428817 0.250174 0.142258 -0.004609
C161  C     C_1   0.928902 0.249942 0.142253 -0.005188
C162  C     C_1   0.071118 0.750190 0.857746 -0.004782
C163  C     C_1   0.071143 0.249968 0.857744 -0.006059
C164  C     C_1   0.928824 0.750169 0.142257 -0.004741
C165  C     C_1   0.478878 0.749941 0.042312 -0.000822
C166  C     C_R   0.337216 0.912146 0.564418 0.085725
C167  C     C_1   0.521125 0.250223 0.957689 -0.001179
C168  C     C_1   0.521190 0.749948 0.957685 -0.000839
C169  C     C_1   0.478796 0.250217 0.042316 -0.001278
C170  C     C_1   0.978869 0.249947 0.042312 -0.001397
C171  C     C_1   0.021131 0.750220 0.957688 -0.001391
C172  C     C_1   0.021179 0.249956 0.957685 -0.001714
C173  C     C_1   0.978803 0.750213 0.042315 -0.001379
C174  C     C_R   0.236625 0.879078 0.640893 -0.175449
C175  C     C_R   0.672240 0.199785 0.379349 -0.167418
C176  C     C_R   0.763423 0.878961 0.359063 -0.175313
H1    H     H_    0.429033 0.813576 0.395297 0.163222
H2    H     H_    0.706541 0.222098 0.362952 0.152890
H3    H     H_    0.791245 0.852053 0.347681 0.146465
H4    H     H_    0.293388 0.222176 0.637115 0.153143
H5    H     H_    0.708809 0.352651 0.651753 0.146855
H6    H     H_    0.206400 0.722129 0.363169 0.153138
H7    H     H_    0.290930 0.349979 0.345450 0.145251
H8    H     H_    0.793205 0.722103 0.637282 0.152994
H9    H     H_    0.152756 0.915967 0.750728 0.137414
H10   H     H_    0.671795 0.234753 0.291767 0.135912
H11   H     H_    0.847317 0.915758 0.249222 0.137406
H12   H     H_    0.656563 0.113977 0.575558 0.172460
H13   H     H_    0.328050 0.234844 0.708424 0.136421
H14   H     H_    0.653142 0.416810 0.748997 0.137444
H15   H     H_    0.171390 0.734930 0.292399 0.136399
H16   H     H_    0.348073 0.412393 0.243136 0.137496
H17   H     H_    0.827664 0.734722 0.708883 0.136468
H18   H     H_    0.211898 0.979131 0.730560 0.137878
H19   H     H_    0.596179 0.184492 0.320020 0.137652
H20   H     H_    0.788220 0.978940 0.269273 0.137838
H21   H     H_    0.403612 0.184540 0.680271 0.137731
H22   H     H_    0.712626 0.479853 0.728366 0.138285
H23   H     H_    0.570947 0.813641 0.604590 0.163125
H24   H     H_    0.095689 0.684719 0.320763 0.137719
H25   H     H_    0.289980 0.475926 0.261869 0.137665
H26   H     H_    0.903209 0.684434 0.680805 0.137774
H27   H     H_    0.326513 0.978170 0.614257 0.155790
H28   H     H_    0.557266 0.120612 0.416678 0.140923
H29   H     H_    0.673604 0.978075 0.385510 0.155726
H30   H     H_    0.442560 0.120608 0.583587 0.140959
H31   H     H_    0.827176 0.478408 0.612801 0.158066
H32   H     H_    0.056980 0.620734 0.417100 0.140357
H33   H     H_    0.175427 0.476618 0.380231 0.156855
H34   H     H_    0.343454 0.113949 0.424427 0.172427
H35   H     H_    0.942343 0.620568 0.583902 0.140677
H36   H     H_    0.529219 0.915126 0.273632 0.124078
H37   H     H_    0.645053 0.906481 0.162688 0.119283
H38   H     H_    0.689051 0.853795 0.193721 0.126549
H39   H     H_    0.616733 0.808572 0.334835 0.133894
H40   H     H_    0.500690 0.816277 0.445021 0.124851
H41   H     H_    0.498034 0.061238 0.713362 0.125839
H42   H     H_    0.476252 0.991743 0.791421 0.119005
H43   H     H_    0.562009 0.937411 0.716138 0.128055
H44   H     H_    0.670071 0.952857 0.562690 0.149220
H45   H     H_    0.928772 0.312884 0.396842 0.164844
H46   H     H_    0.692427 0.021927 0.483231 0.141019
H47   H     H_    0.470770 0.914500 0.727099 0.123367
H48   H     H_    0.354938 0.906171 0.837488 0.119322
H49   H     H_    0.311071 0.854487 0.804826 0.126517
H50   H     H_    0.383498 0.809941 0.662611 0.133960
H51   H     H_    0.499535 0.817315 0.552993 0.125003
H52   H     H_    0.501933 0.061124 0.286694 0.125910
H53   H     H_    0.523711 0.991630 0.208528 0.119082
H54   H     H_    0.437966 0.937362 0.283722 0.128268
H55   H     H_    0.329913 0.952878 0.437183 0.149199
H56   H     H_    0.156979 0.613671 0.574970 0.172203
H57   H     H_    0.307555 0.021956 0.516735 0.141016
H58   H     H_    0.028835 0.415622 0.276227 0.125636
H59   H     H_    0.144661 0.406029 0.162729 0.119204
H60   H     H_    0.189357 0.351278 0.189499 0.126521
H61   H     H_    0.117694 0.305103 0.329166 0.136864
H62   H     H_    0.001743 0.313954 0.442703 0.133159
H63   H     H_    0.998507 0.560418 0.712694 0.126687
H64   H     H_    0.976592 0.489822 0.787877 0.122829
H65   H     H_    0.062322 0.435227 0.710545 0.124968
H66   H     H_    0.170545 0.451557 0.558089 0.150198
H67   H     H_    0.070452 0.315169 0.608598 0.159815
H68   H     H_    0.192903 0.521541 0.481043 0.141531
H69   H     H_    0.981379 0.371631 0.748416 0.120956
H70   H     H_    0.864969 0.364167 0.867984 0.130786
H71   H     H_    0.808996 0.357960 0.824323 0.128798
H72   H     H_    0.869899 0.359079 0.660133 0.137651
H73   H     H_    0.986195 0.366883 0.540133 0.111258
H74   H     H_    0.002298 0.561317 0.286516 0.125772
H75   H     H_    0.024386 0.491863 0.208028 0.118898
H76   H     H_    0.938793 0.437526 0.282725 0.128128
H77   H     H_    0.830570 0.452945 0.435988 0.149171
H78   H     H_    0.843704 0.614035 0.424065 0.172214
H79   H     H_    0.807895 0.521992 0.515840 0.140791
H80   H     H_    0.208786 0.852181 0.652314 0.146398
O1    O     O_R   0.321660 0.769950 0.500020 -0.615573
O2    O     O_R   0.730050 0.178330 0.500000 -0.616375
O3    O     O_R   0.730050 0.821670 0.500000 -0.621267
O4    O     O_R   0.269950 0.178330 0.500000 -0.616320
O5    O     O_R   0.769950 0.321670 0.500000 -0.621194
O6    O     O_R   0.230050 0.678330 0.500000 -0.616305
O7    O     O_R   0.230050 0.321670 0.500000 -0.621600
O8    O     O_R   0.769950 0.678330 0.500000 -0.616357
O9    O     O_R   0.339000 0.724150 0.373720 -0.598507
O10   O     O_R   0.661000 0.275850 0.626280 -0.605226
O11   O     O_R   0.661000 0.724150 0.626280 -0.598587
O12   O     O_R   0.678340 0.230050 0.499980 -0.620463
O13   O     O_R   0.339000 0.275850 0.373720 -0.604540
O14   O     O_R   0.839000 0.224150 0.373720 -0.598391
O15   O     O_R   0.161000 0.775850 0.626280 -0.604914
O16   O     O_R   0.161000 0.224150 0.626280 -0.598575
O17   O     O_R   0.839000 0.775850 0.373720 -0.604927
O18   O     O_R   0.287290 0.775870 0.373700 -0.607382
O19   O     O_R   0.712710 0.224130 0.626300 -0.597595
O20   O     O_R   0.712710 0.775870 0.626300 -0.607410
O21   O     O_R   0.287290 0.224130 0.373700 -0.597814
O22   O     O_R   0.787290 0.275870 0.373700 -0.607677
O23   O     O_R   0.678340 0.769950 0.499980 -0.615464
O24   O     O_R   0.212710 0.724130 0.626300 -0.598259
O25   O     O_R   0.212710 0.275870 0.626300 -0.607766
O26   O     O_R   0.787290 0.724130 0.373700 -0.598173
O27   O     O_R   0.989830 0.545820 0.428700 -0.630970
O28   O     O_R   0.010170 0.454180 0.571300 -0.602489
O29   O     O_R   0.010170 0.545820 0.571300 -0.630384
O30   O     O_R   0.989830 0.454180 0.428700 -0.609785
O31   O     O_R   0.489830 0.045820 0.428700 -0.631441
O32   O     O_R   0.510170 0.954180 0.571300 -0.611551
O33   O     O_R   0.510170 0.045820 0.571300 -0.631436
O34   O     O_R   0.321660 0.230050 0.500020 -0.620386
O35   O     O_R   0.489830 0.954180 0.428700 -0.612074
O36   O     O_R   0.918540 0.545810 0.571290 -0.633408
O37   O     O_R   0.081460 0.454190 0.428710 -0.627027
O38   O     O_R   0.081460 0.545810 0.428710 -0.634678
O39   O     O_R   0.918540 0.454190 0.571290 -0.629262
O40   O     O_R   0.418540 0.045810 0.571290 -0.634496
O41   O     O_R   0.581460 0.954190 0.428710 -0.624361
O42   O     O_R   0.581460 0.045810 0.428710 -0.634497
O43   O     O_R   0.418540 0.954190 0.571290 -0.624125
O44   O     O_R   0.821660 0.269950 0.500020 -0.614858
O45   O     O_R   0.178340 0.730050 0.499980 -0.620434
O46   O     O_R   0.178340 0.269950 0.499980 -0.613595
O47   O     O_R   0.821660 0.730050 0.500020 -0.620358
O48   O     O_R   0.269950 0.821670 0.500000 -0.621203
Zn1   Zn    Zn3+2 0.284530 0.715470 0.500010 0.952073
Zn2   Zn    Zn3+2 0.952400 0.500000 0.595210 0.954492
Zn3   Zn    Zn3+2 0.547600 0.000000 0.404790 0.947362
Zn4   Zn    Zn3+2 0.452400 0.000000 0.595210 0.947739
Zn5   Zn    Zn3+2 0.715470 0.284530 0.499990 0.943559
Zn6   Zn    Zn3+2 0.715470 0.715470 0.499990 0.952053
Zn7   Zn    Zn3+2 0.284530 0.284530 0.500010 0.943849
Zn8   Zn    Zn3+2 0.784530 0.215470 0.500010 0.954130
Zn9   Zn    Zn3+2 0.215470 0.784530 0.499990 0.943989
Zn10  Zn    Zn3+2 0.215470 0.215470 0.499990 0.953774
Zn11  Zn    Zn3+2 0.784530 0.784530 0.500010 0.944006
Zn12  Zn    Zn3+2 0.047600 0.500000 0.404790 0.944826

loop_
_geom_bond_atom_site_label_1
_geom_bond_atom_site_label_2
_ccdc_geom_bond_type
O14   Zn8   S    
C62   H58   S    
C143  O14   A    
C5    H6    S    
C55   C56   A    
C57   C128  A    
C2    C123  A    
C121  C166  A    
C171  C173  T    
C50   H48   S    
C102  C144  S    
C23   H25   S    
C141  O11   A    
O5    Zn5   S    
O27   Zn12  S    
C131  O37   A    
O10   Zn5   S    
C16   H17   S    
C176  H3    S    
C162  C171  S    
C54   C116  S    
C139  O18   A    
C4    C12   A    
C117  C126  A    
C81   C86   A    
C119  C128  A    
C125  C135  S    
C59   C60   A    
O15   Zn9   S    
C32   C57   A    
C38   H38   S    
C142  O21   A    
C109  C118  A    
O22   Zn5   S    
O29   Zn2   S    
C45   C47   A    
C11   C20   A    
C150  C159  T    
C51   C52   A    
C22   C31   A    
C112  C120  A    
C13   C124  A    
O40   Zn4   S    
C103  C112  A    
C77   H71   S    
C142  C151  S    
C75   C76   A    
C138  O35   A    
C105  C114  A    
O18   Zn9   S    
C146  C154  S    
C164  C173  S    
C163  C172  S    
C69   H63   S    
C146  O25   A    
C36   H36   S    
C157  C165  S    
C111  O4    A    
C105  H12   S    
O23   Zn6   S    
C16   C25   A    
C60   H57   S    
C72   C73   A    
C24   C90   A    
C101  C133  S    
C153  C162  T    
C8    C17   A    
C39   H39   S    
C106  C115  A    
C89   O12   A    
C89   C96   S    
C26   H27   S    
C53   H51   S    
C32   H33   S    
C30   H31   S    
C134  O30   A    
C56   H53   S    
O6    Zn1   S    
C69   C70   A    
C67   C118  S    
O37   Zn12  S    
C3    C11   A    
O21   Zn10  S    
O39   Zn2   S    
C126  C134  S    
C155  O47   A    
C144  O7    A    
C132  O29   A    
C143  C152  S    
C55   H52   S    
O7    Zn7   S    
C59   H55   S    
C167  C169  T    
C107  H34   S    
C85   C86   A    
C99   C108  A    
C3    C90   A    
C36   C37   A    
C38   C39   A    
C109  H56   S    
C78   C80   A    
O32   Zn4   S    
O28   Zn2   S    
C104  H1    S    
C31   C46   A    
C78   H72   S    
C4    H5    S    
C149  C158  T    
C122  O44   A    
C152  C161  T    
O42   Zn3   S    
C4    C91   A    
C139  O9    A    
C100  O3    A    
C19   H20   S    
C66   H62   S    
C17   H18   S    
C70   H64   S    
C141  C150  S    
C48   C53   A    
C139  C148  S    
C120  C129  A    
C72   H66   S    
C46   C127  A    
C9    H10   S    
O8    Zn6   S    
C39   C40   A    
C147  O26   A    
C68   C94   A    
O30   Zn12  S    
C3    H4    S    
C130  O27   A    
C58   H54   S    
C112  H78   S    
C83   C84   A    
C1    C95   S    
C40   H40   S    
C41   C47   A    
C2    C87   A    
C1    O48   A    
C147  O17   A    
O20   Zn11  S    
C19   C28   A    
C2    C27   A    
O17   Zn11  S    
C114  C123  A    
C52   H50   S    
C116  C125  A    
C100  O23   A    
C140  O10   A    
C43   H42   S    
C118  C127  A    
C14   H15   S    
C128  C131  S    
C97   C100  S    
C52   C53   A    
C129  C130  S    
C174  H80   S    
O24   Zn1   S    
C54   C55   A    
C133  O45   A    
C108  C117  A    
C82   H74   S    
C89   O2    A    
C88   C97   A    
C110  C119  A    
C87   C175  A    
C123  C137  S    
C88   C176  A    
C14   C22   A    
C71   C72   A    
C108  H45   S    
C73   H68   S    
C64   C65   A    
C56   C58   A    
C9    C175  A    
C34   C36   A    
C148  C157  T    
C61   C62   A    
C107  C116  A    
O47   Zn11  S    
C63   C64   A    
C9    C18   A    
O34   Zn7   S    
C113  C121  A    
C49   C50   A    
O4    Zn10  S    
C45   H44   S    
C91   C99   A    
O1    Zn1   S    
C140  C149  S    
O41   Zn3   S    
O46   Zn10  S    
C33   C68   A    
C25   C33   A    
O3    Zn11  S    
C96   C105  A    
C41   C42   A    
O48   Zn9   S    
C77   C78   A    
C136  O41   A    
C34   C113  S    
O45   Zn9   S    
C140  O19   A    
C22   H24   S    
C64   H60   S    
C46   C92   A    
C101  C109  A    
C24   C29   A    
C110  H67   S    
C158  C167  S    
C160  C169  S    
C13   C28   A    
C70   C71   A    
C67   C73   A    
C41   C114  S    
O12   Zn5   S    
C74   C80   A    
C49   H47   S    
C28   H29   S    
C79   C174  A    
C37   H37   S    
C175  H2    S    
C1    O1    A    
C124  C136  S    
C61   C117  S    
C84   C85   A    
C58   C59   A    
C143  O22   A    
C98   C107  A    
C11   H13   S    
C79   C95   A    
C62   C63   A    
C10   C19   A    
C6    C93   A    
C50   C51   A    
O16   Zn10  S    
C137  O33   A    
C147  C156  S    
C5    C14   A    
C92   C101  A    
C99   C122  S    
O38   Zn12  S    
C155  O8    A    
C7    H8    S    
C103  C155  S    
C7    C16   A    
C94   C103  A    
O35   Zn3   S    
C102  C110  A    
C42   C43   A    
O36   Zn2   S    
C44   C45   A    
C144  O46   A    
C7    C94   A    
C115  C124  A    
C18   H19   S    
O25   Zn7   S    
O31   Zn3   S    
C93   C102  A    
C122  O5    A    
C21   C30   A    
C6    H7    S    
C23   C32   A    
C142  O13   A    
C31   H32   S    
C170  C172  T    
C48   C49   A    
C8    C174  A    
C20   H21   S    
C63   H59   S    
C82   C83   A    
C130  O36   A    
C138  O43   A    
O19   Zn8   S    
C15   H16   S    
C84   H76   S    
C21   H22   S    
C43   C44   A    
C42   H41   S    
C81   C82   A    
C54   C60   A    
O33   Zn4   S    
C74   C119  S    
C81   C120  S    
C37   C38   A    
C111  O34   A    
C30   C35   A    
C34   C40   A    
C17   C26   A    
O43   Zn4   S    
C159  C168  S    
O44   Zn8   S    
C127  C132  S    
C6    C15   A    
C134  O39   A    
C61   C66   A    
C51   H49   S    
C75   H69   S    
C145  C153  S    
C15   C23   A    
C57   C93   A    
C65   H61   S    
C137  O42   A    
C44   H43   S    
O26   Zn6   S    
C131  O28   A    
C20   C29   A    
C10   C176  A    
C133  O6    A    
C74   C75   A    
C27   H28   S    
C154  C163  T    
O9    Zn1   S    
C76   C77   A    
C71   H65   S    
C25   H26   S    
C86   H79   S    
C12   C21   A    
C29   H30   S    
C104  C113  A    
C67   C69   A    
C121  C138  S    
C35   C126  A    
C135  O40   A    
C87   C96   A    
C10   H11   S    
O11   Zn6   S    
C48   C115  S    
C161  C170  S    
C47   H46   S    
C165  C168  T    
C80   H73   S    
C24   C125  A    
C145  O24   A    
C135  O31   A    
C97   C106  A    
C136  O32   A    
C95   C104  A    
C26   C166  A    
C98   C111  S    
C83   H75   S    
C76   H70   S    
C18   C27   A    
C8    H9    S    
C12   H14   S    
C85   H77   S    
C145  O15   A    
C151  C160  T    
C146  O16   A    
O2    Zn8   S    
C33   H35   S    
C13   C88   A    
C132  O38   A    
C79   C166  A    
C68   C129  A    
C5    C92   A    
C156  C164  T    
C65   C66   A    
C141  O20   A    
C90   C98   A    
C106  H23   S    
O13   Zn7   S    
C35   C91   A    
