data_mof_unit_pretest_828.cif
_audit_creation_date              2012-12-10T17:47:16-0500
_audit_creation_method            fapswitch 2.2
_symmetry_space_group_name_H-M    P1
_symmetry_Int_Tables_number       1
_space_group_crystal_system       triclinic
_cell_length_a                    11.730136
_cell_length_b                    14.787692
_cell_length_c                    14.820112
_cell_angle_alpha                 64.802493
_cell_angle_beta                  103.957895
_cell_angle_gamma                 103.2355
_cell_volume                      2233.96605079

loop_
_atom_site_label
_atom_site_type_symbol
_atom_type_description
_atom_site_fract_x
_atom_site_fract_y
_atom_site_fract_z
_atom_type_partial_charge
C1    C     C_R   0.480689 0.119697 0.312497 0.788043
C2    C     C_R   0.520457 0.880349 0.687521 0.795986
C3    C     C_R   0.433391 0.324084 0.003310 0.169602
C4    C     C_R   0.584569 0.679017 0.996897 0.090800
C5    C     C_R   0.512480 0.468297 0.053507 -0.057530
C6    C     C_R   0.512473 0.533141 0.949139 0.048763
C7    C     C_R   0.487099 0.488627 0.876298 -0.000212
C8    C     C_R   0.541104 0.513122 0.126536 -0.008305
C9    C     C_R   0.434985 0.388097 0.902502 -0.302686
C10   C     C_R   0.588935 0.615152 0.098163 -0.189679
C11   C     C_R   0.718750 0.301725 0.643883 -0.258357
C12   C     C_R   0.281253 0.698371 0.355968 -0.260887
C13   C     C_R   0.680739 0.213720 0.625528 0.181461
C14   C     C_R   0.319435 0.786446 0.374207 0.181481
C15   C     C_R   0.508316 0.280998 0.516115 0.027203
C16   C     C_R   0.490944 0.718473 0.484756 -0.001363
C17   C     C_R   0.543312 0.371705 0.534542 0.016723
C18   C     C_R   0.455804 0.627735 0.466384 -0.022588
C19   C     C_R   0.652146 0.380517 0.598399 0.097914
C20   C     C_R   0.347421 0.619287 0.401899 0.114670
C21   C     C_R   0.476524 0.454466 0.490931 0.128123
C22   C     C_R   0.522421 0.544901 0.510074 0.059999
C23   C     C_R   0.284079 0.999916 0.499840 0.814103
C24   C     C_R   0.715922 0.000080 0.500165 0.823489
C25   C     C_R   0.633802 0.549886 0.571276 -0.190770
C26   C     C_R   0.365987 0.450126 0.428341 -0.182496
C27   C     C_R   0.696078 0.468554 0.615909 -0.160776
C28   C     C_R   0.303850 0.531565 0.383702 -0.178526
C29   C     C_1   0.162222 0.999684 0.499769 -0.161171
C30   C     C_1   0.837778 0.000307 0.500244 -0.152711
C31   C     C_1   0.059846 0.999832 0.499892 0.022665
C32   C     C_1   0.940154 0.000156 0.500126 0.025910
C33   C     C_R   0.466040 0.187821 0.205166 -0.055377
C34   C     C_R   0.540017 0.812844 0.794884 -0.062327
C35   C     C_R   0.392755 0.220533 0.028823 -0.167501
C36   C     C_R   0.617937 0.783479 0.970028 -0.164091
C37   C     C_R   0.405976 0.153071 0.129630 -0.187473
C38   C     C_R   0.598294 0.849904 0.869184 -0.185682
C39   C     C_R   0.509822 0.290510 0.178752 -0.255574
C40   C     C_R   0.504646 0.708890 0.822543 -0.150548
C41   C     C_R   0.483469 0.361715 0.079735 0.078064
C42   C     C_R   0.536150 0.639759 0.921735 0.108834
Cu1   Cu    Cu3+1 0.469550 0.918260 0.475690 0.946706
Cu2   Cu    Cu3+1 0.530450 0.081740 0.524310 0.941568
H1    H     H_    0.408215 0.356618 0.845154 0.139671
H2    H     H_    0.616696 0.647750 0.154596 0.187514
H3    H     H_    0.675790 0.616013 0.586205 0.170374
H4    H     H_    0.324941 0.384762 0.411722 0.122872
H5    H     H_    0.449466 0.682901 0.766112 0.150081
H6    H     H_    0.568702 0.313094 0.236022 0.171634
H7    H     H_    0.626393 0.930040 0.849808 0.149647
H8    H     H_    0.371957 0.073837 0.148085 0.149386
H9    H     H_    0.352255 0.191627 0.970655 0.144031
H10   H     H_    0.657294 0.813883 0.027234 0.147113
H11   H     H_    0.780826 0.475274 0.663800 0.157210
H12   H     H_    0.219723 0.525352 0.334885 0.145837
H13   H     H_    0.569424 0.728706 0.536728 0.155953
H14   H     H_    0.429342 0.270345 0.464801 0.126560
H15   H     H_    0.801330 0.309086 0.694171 0.182983
H16   H     H_    0.198939 0.691232 0.305315 0.184561
N1    N     N_R   0.576230 0.204580 0.560790 -0.222972
N2    N     N_R   0.423770 0.795420 0.439210 -0.221709
O1    O     O_R   0.459870 0.022090 0.338120 -0.614395
O2    O     O_R   0.540130 0.977910 0.661880 -0.618510
O3    O     O_R   0.511290 0.160150 0.379180 -0.577140
O4    O     O_R   0.488710 0.839850 0.620820 -0.570264
O5    O     O_R   0.311490 0.930960 0.479480 -0.591321
O6    O     O_R   0.688510 0.069040 0.520520 -0.589938
O7    O     O_R   0.362910 0.069020 0.520540 -0.578157
O8    O     O_R   0.637090 0.930980 0.479460 -0.570511
C43   C     C_2   0.529012 0.537243 0.777313 0.322854
H17   H     H_    0.480550 0.516668 0.714908 0.072677
O9    O     O_2   0.621394 0.596127 0.766320 -0.548507
C44   C     C_2   0.506749 0.461857 0.228569 0.335373
H18   H     H_    0.430162 0.403461 0.242348 0.068721
O10   O     O_2   0.563498 0.484927 0.298250 -0.542978
C45   C     C_2   0.241446 0.866395 0.322038 0.370862
H19   H     H_    0.273696 0.944274 0.307729 0.118059
O11   O     O_2   0.136219 0.845520 0.292207 -0.561515
C46   C     C_2   0.758904 0.133911 0.677467 0.372030
H20   H     H_    0.726587 0.055959 0.692039 0.119855
O12   O     O_2   0.864268 0.154968 0.706850 -0.563419

loop_
_geom_bond_atom_site_label_1
_geom_bond_atom_site_label_2
_ccdc_geom_bond_type
C21   C26   A    
C4    C36   A    
C9    H1    S    
C35   H9    S    
C23   O7    A    
C28   H12   S    
C24   O8    A    
C39   C41   A    
C45   H19   S    
Cu2   O2    S    
C11   C19   A    
C33   C39   A    
C44   O10   D    
C34   C40   A    
C23   C29   S    
C35   C37   A    
C7    C43   S    
C5    C6    A    
C27   H11   S    
C40   H5    S    
C14   N2    A    
C7    C9    A    
C14   C45   S    
C23   O5    A    
C22   C25   A    
C10   H2    S    
C1    O3    A    
C19   C27   A    
C25   H3    S    
C26   H4    S    
C2    C34   S    
C40   C42   A    
C13   C46   S    
C34   C38   A    
C21   C22   A    
Cu2   O3    S    
C16   N2    A    
C11   H15   S    
C1    O1    A    
C2    O2    A    
C45   O11   D    
C44   H18   S    
Cu1   O1    S    
C46   O12   D    
C43   O9    D    
C37   H8    S    
C24   O6    A    
C38   H7    S    
C20   C28   A    
C33   C37   A    
Cu1   Cu2   S    
Cu1   O5    S    
C3    C9    A    
C31   C32   S    
C3    C35   A    
C12   C20   A    
C8    C44   S    
C15   N1    A    
Cu2   O7    S    
C8    C10   A    
C12   C14   A    
Cu1   O8    S    
C15   H14   S    
Cu2   O6    S    
C4    C10   A    
C15   C17   A    
C5    C41   A    
C3    C41   A    
C18   C22   A    
C46   H20   S    
C2    O4    A    
C5    C8    A    
C6    C7    A    
Cu2   N1    S    
C25   C27   A    
C26   C28   A    
C36   C38   A    
C43   H17   S    
C29   C31   T    
C30   C32   T    
C11   C13   A    
C4    C42   A    
Cu1   O4    S    
C17   C19   A    
C18   C20   A    
C16   H13   S    
C24   C30   S    
C36   H10   S    
C1    C33   S    
C12   H16   S    
C39   H6    S    
C13   N1    A    
C16   C18   A    
C6    C42   A    
Cu1   N2    S    
C17   C21   A    
