data_mof_unit_pretest_797.cif
_audit_creation_date              2013-03-05T15:54:26-0500
_audit_creation_method            fapswitch 2.2
_symmetry_space_group_name_H-M    P1
_symmetry_Int_Tables_number       1
_space_group_crystal_system       triclinic
_cell_length_a                    15.708797
_cell_length_b                    10.634127
_cell_length_c                    9.935035
_cell_angle_alpha                 90.062436
_cell_angle_beta                  89.937927
_cell_angle_gamma                 91.669737
_cell_volume                      1658.93445948

loop_
_atom_site_label
_atom_site_type_symbol
_atom_site_description
_atom_site_fract_x
_atom_site_fract_y
_atom_site_fract_z
_atom_type_partial_charge
O1    O     O_R   0.500000 0.316780 0.614690 -0.637256
O2    O     O_R   0.499990 0.316750 0.385360 -0.630809
C1    C     C_R   0.501702 0.260907 0.499916 0.866574
O3    O     O_R   0.376780 0.500000 0.614650 -0.628797
O4    O     O_R   0.376770 0.499980 0.385310 -0.630513
C2    C     C_R   0.338024 0.499491 0.500051 0.871155
Zn1   Zn    Zn3+2 0.500010 0.500020 0.653130 0.949485
Zn2   Zn    Zn3+2 0.499990 0.499980 0.346870 0.954123
O5    O     O_R   0.500010 0.683250 0.614640 -0.611467
O6    O     O_R   0.500000 0.683220 0.385310 -0.600889
O7    O     O_R   0.623230 0.500020 0.614690 -0.607387
O8    O     O_R   0.623220 0.500000 0.385350 -0.610664
C3    C     C_R   0.500645 0.739270 0.500094 0.855509
C4    C     C_R   0.661978 0.500449 0.499962 0.876535
C5    C     C_3   0.969405 0.393452 0.560792 -0.162170
C6    C     C_3   0.025904 0.396780 0.433119 -0.157170
H1    H     H_    0.049308 0.313660 0.378083 0.145878
H2    H     H_    0.942173 0.307634 0.610057 0.153059
H3    H     H_    0.947003 0.505471 0.268384 0.151195
C7    C     C_1   0.248969 0.498685 0.500233 -0.167647
C8    C     C_1   0.751006 0.500016 0.499941 -0.137518
C9    C     C_3   0.027912 0.494677 0.628179 -0.161527
C10   C     C_3   0.082582 0.498014 0.500509 0.186594
C11   C     C_3   0.974044 0.600192 0.567805 -0.117231
C12   C     C_3   0.917342 0.498985 0.500420 0.179575
C13   C     C_3   0.030496 0.603501 0.440150 -0.162252
C14   C     C_3   0.972023 0.502298 0.372763 -0.165300
C15   C     C_1   0.173563 0.498131 0.500397 -0.058319
C16   C     C_1   0.826386 0.499548 0.500156 -0.018533
H4    H     H_    0.057634 0.689348 0.390852 0.157089
H5    H     H_    0.950991 0.683520 0.622800 0.205493
H6    H     H_    0.052937 0.491512 0.732555 0.150653
H7    H     H_    0.382539 0.113802 0.404915 0.155198
C17   C     C_R   0.649281 0.135765 0.601223 -0.215886
H8    H     H_    0.653007 0.237414 0.600729 0.161677
C18   C     C_R   0.719217 0.072743 0.650554 -0.218027
H9    H     H_    0.773555 0.127328 0.687576 0.181033
C19   C     C_R   0.719189 0.941117 0.651517 0.372154
C20   C     C_R   0.647749 0.873967 0.601433 -0.251245
H10   H     H_    0.649498 0.772504 0.599925 0.178282
C21   C     C_R   0.575766 0.936924 0.552309 -0.001104
C22   C     C_R   0.576856 0.068450 0.552214 0.106793
C23   C     C_R   0.505831 0.128914 0.499422 -0.163132
C24   C     C_R   0.436132 0.063804 0.445187 -0.216784
C25   C     C_R   0.432752 0.935043 0.447239 0.445746
C26   C     C_R   0.502912 0.871991 0.500691 -0.194053
H11   H     H_    0.595126 0.642081 0.124916 0.156631
C27   C     C_R   0.388958 0.334306 0.139825 -0.142142
H12   H     H_    0.384935 0.329049 0.246569 0.197088
C28   C     C_R   0.334406 0.252402 0.069765 -0.180817
H13   H     H_    0.291814 0.188636 0.124120 0.161563
C29   C     C_R   0.334304 0.252490 0.930433 -0.183454
H14   H     H_    0.291604 0.188820 0.876170 0.158594
C30   C     C_R   0.388808 0.334407 0.860268 -0.140753
H15   H     H_    0.384670 0.329259 0.753509 0.201703
C31   C     C_R   0.445294 0.418357 0.927777 0.164440
C32   C     C_R   0.445335 0.418360 0.072239 0.168730
N1    N     N_R   0.499210 0.498800 0.142780 -0.122697
C33   C     C_R   0.552333 0.578134 0.071406 -0.091772
H16   H     H_    0.595113 0.642014 0.874828 0.168340
C34   C     C_R   0.552328 0.578088 0.928437 -0.091213
N2    N     N_R   0.499180 0.498720 0.857170 -0.125115
N3    N     N_R   0.791399 0.875773 0.702547 0.198593
O9    O     O_R   0.859916 0.937802 0.740430 -0.413045
O10   O     O_R   0.788898 0.753760 0.713538 -0.436130
O11   O     O_3   0.359583 0.875759 0.398020 -0.759314
H17   H     H_    0.356731 0.786665 0.426316 0.332654

loop_
_geom_bond_atom_site_label_1
_geom_bond_atom_site_label_2
_geom_bond_distance
_ccdc_geom_bond_type
C5    H2    1.110484 S    
C28   C29   1.384275 A    
C23   C24   1.387366 A    
N3    O10   1.301661 A    
Zn1   N2    2.027233 S    
O4    Zn2   1.972546 S    
C2    C7    1.398718 S    
C21   C22   1.398263 A    
C34   N2    1.367343 A    
C17   C22   1.413101 A    
C33   C34   1.420407 A    
Zn2   O8    1.973586 S    
C31   N2    1.377245 A    
C29   C30   1.390830 A    
C6    C14   1.546920 S    
C18   C19   1.399760 A    
C28   H13   1.082892 S    
C13   C14   1.546710 S    
C11   H5    1.109993 S    
O11   H17   0.988309 S    
C27   C32   1.409983 A    
C20   C21   1.418122 A    
O1    Zn1   1.985256 S    
C10   C15   1.429158 S    
C11   C12   1.530933 S    
Zn1   O7    1.972547 S    
C1    C23   1.407025 S    
C32   N1    1.377283 A    
O4    C2    1.291636 A    
C21   C26   1.415630 A    
C9    H6    1.110285 S    
H16   C34   1.082077 S    
O3    Zn1   1.973586 S    
C4    C8    1.398656 S    
C27   C28   1.390651 A    
C27   H12   1.063747 S    
C5    C9    1.547174 S    
O8    C4    1.291748 A    
C13   H4    1.110346 S    
C6    C10   1.530940 S    
C17   C18   1.393229 A    
C9    C10   1.530889 S    
C12   C16   1.428997 S    
C3    C26   1.410789 S    
C17   H8    1.080844 S    
O7    C4    1.291538 A    
C9    C11   1.546844 S    
C5    C12   1.531043 S    
C12   C14   1.530879 S    
C31   C32   1.435235 A    
H11   C33   1.081800 S    
C5    C6    1.547166 S    
C20   H10   1.080208 S    
H3    C14   1.110281 S    
C29   H14   1.082828 S    
O3    C2    1.291607 A    
C19   N3    1.440328 S    
C22   C23   1.406112 A    
C10   C13   1.530832 S    
C25   O11   1.384188 S    
Zn1   O5    1.986068 S    
O5    C3    1.284985 A    
C30   H15   1.063971 S    
C18   H9    1.082666 S    
O2    C1    1.284968 A    
C7    C15   1.184385 T    
Zn2   N1    2.027714 S    
N1    C33   1.367454 A    
C25   C26   1.411164 A    
H7    C24   1.085730 S    
C8    C16   1.184295 T    
Zn2   O6    1.985255 S    
O2    Zn2   1.986069 S    
C24   C25   1.368922 A    
N3    O9    1.301609 A    
C6    H1    1.110353 S    
C11   C13   1.546593 S    
C30   C31   1.409954 A    
O1    C1    1.285837 A    
O6    C3    1.286094 A    
C19   C20   1.403798 A    
