data_mof_unit_pretest_692.cif
_audit_creation_date              2012-12-11T15:41:32-0500
_audit_creation_method            fapswitch 2.2
_symmetry_space_group_name_H-M    P1
_symmetry_Int_Tables_number       1
_space_group_crystal_system       triclinic
_cell_length_a                    14.860871
_cell_length_b                    15.099506
_cell_length_c                    14.898071
_cell_angle_alpha                 108.813204
_cell_angle_beta                  109.619177
_cell_angle_gamma                 109.303246
_cell_volume                      2594.65939158

loop_
_atom_site_label
_atom_site_type_symbol
_atom_type_description
_atom_site_fract_x
_atom_site_fract_y
_atom_site_fract_z
_atom_type_partial_charge
C1    C     C_R   0.249621 0.063729 0.973116 -0.069884
C2    C     C_R   0.804764 0.004905 0.096731 -0.120968
C3    C     C_R   0.793334 0.324086 0.323132 -0.006049
C4    C     C_R   0.137646 0.700744 0.697134 -0.002114
C5    C     C_R   0.500250 0.938931 0.304752 0.028789
C6    C     C_R   0.503373 0.949167 0.677534 0.024773
C7    C     C_R   0.497053 0.306719 0.952934 0.105602
C8    C     C_R   0.506614 0.680641 0.959471 0.132259
C9    C     C_R   0.395715 0.152700 0.616445 -0.103996
C10   C     C_R   0.706245 0.824127 0.333940 -0.118526
C11   C     C_R   0.450245 0.251466 0.711579 -0.120335
C12   C     C_R   0.625158 0.735399 0.231632 -0.088889
C13   C     C_R   0.390429 0.296516 0.744792 0.166028
C14   C     C_R   0.654959 0.689011 0.156719 0.170327
C15   C     C_R   0.275424 0.241298 0.681581 -0.122052
C16   C     C_R   0.766183 0.733151 0.184887 -0.163362
C17   C     C_R   0.221229 0.142801 0.586163 -0.062409
C18   C     C_R   0.846392 0.823991 0.286031 -0.104222
C19   C     C_R   0.281311 0.098473 0.553735 -0.074501
C20   C     C_R   0.816429 0.869275 0.360771 -0.042328
C21   C     C_R   0.453875 0.492461 0.851961 0.165880
C22   C     C_R   0.555415 0.493281 0.050574 0.169483
C23   C     C_R   0.767942 0.223841 0.315566 0.189282
C24   C     C_R   0.196889 0.795026 0.701778 0.153779
C25   C     C_R   0.515244 0.587268 0.953117 -0.063319
C26   C     C_R   0.497841 0.399740 0.949891 -0.066030
C27   C     C_R   0.572316 0.588984 0.051845 -0.093129
C28   C     C_R   0.447835 0.397490 0.849811 -0.092752
C29   C     C_R   0.872568 0.447264 0.517544 -0.111052
C30   C     C_R   0.033892 0.592507 0.502412 -0.112732
C31   C     C_R   0.957912 0.541408 0.611027 -0.157328
C32   C     C_R   0.950529 0.499364 0.410596 -0.144087
C33   C     C_R   0.038927 0.612494 0.602659 0.167892
C34   C     C_R   0.871626 0.425604 0.418517 0.171812
C35   C     C_R   0.604925 0.957270 0.577576 -0.143540
C36   C     C_R   0.406200 0.844254 0.382510 -0.166231
C37   C     C_R   0.603376 0.961582 0.486365 -0.201839
C38   C     C_R   0.407373 0.843602 0.475750 -0.160202
C39   C     C_R   0.503312 0.910601 0.389931 0.133155
C40   C     C_R   0.505777 0.909134 0.575858 0.144993
C41   C     C_R   0.127583 0.055057 0.157503 -0.156390
C42   C     C_R   0.037869 0.158909 0.062721 -0.163119
C43   C     C_R   0.036746 0.058415 0.160748 -0.150130
C44   C     C_R   0.128763 0.155578 0.059606 -0.146041
C45   C     C_R   0.408829 0.908209 0.211028 -0.140970
C46   C     C_R   0.593787 0.026391 0.779539 -0.128056
C47   C     C_R   0.984662 0.100259 0.102927 0.141572
C48   C     C_R   0.165532 0.092640 0.095614 0.143300
C49   C     C_R   0.589739 0.301584 0.002587 -0.102191
C50   C     C_R   0.411549 0.687201 0.941768 -0.108218
C51   C     C_R   0.590620 0.995781 0.299728 -0.096256
C52   C     C_R   0.410311 0.933297 0.687142 -0.097828
C53   C     C_R   0.406376 0.212339 0.915123 -0.102005
C54   C     C_R   0.594972 0.782490 0.024903 -0.118336
C55   C     C_R   0.754768 0.312500 0.220129 -0.136212
C56   C     C_R   0.198532 0.699475 0.789052 -0.139393
C57   C     C_R   0.250422 0.972470 0.065354 -0.121318
C58   C     C_R   0.804931 0.095638 0.005476 -0.133951
C59   C     C_R   0.224048 0.048632 0.050497 0.028968
C60   C     C_R   0.869181 0.067094 0.068517 0.050949
H1    H     H_    0.236893 0.114666 0.939621 0.094785
H2    H     H_    0.832063 0.981619 0.157737 0.103121
H3    H     H_    0.442081 0.117897 0.591668 0.123851
H4    H     H_    0.683972 0.856809 0.393168 0.125997
H5    H     H_    0.538841 0.292226 0.760162 0.111554
H6    H     H_    0.540074 0.701058 0.211966 0.123097
H7    H     H_    0.227938 0.273913 0.707009 0.135444
H8    H     H_    0.790385 0.697165 0.128266 0.117560
H9    H     H_    0.132578 0.100367 0.537843 0.127243
H10   H     H_    0.931823 0.858320 0.307040 0.115461
H11   H     H_    0.810095 0.390084 0.522679 0.140349
H12   H     H_    0.098424 0.645433 0.495839 0.130218
H13   H     H_    0.962715 0.557255 0.689247 0.119650
H14   H     H_    0.951865 0.482533 0.334793 0.115196
H15   H     H_    0.683297 0.003338 0.651734 0.114243
H16   H     H_    0.328179 0.800308 0.308030 0.109418
H17   H     H_    0.680503 0.012454 0.495569 0.133622
H18   H     H_    0.329983 0.800227 0.470667 0.116844
H19   H     H_    0.159443 0.012845 0.193510 0.107200
H20   H     H_    0.004016 0.198204 0.023661 0.109750
H21   H     H_    0.002005 0.018385 0.198910 0.108651
H22   H     H_    0.161712 0.192737 0.018614 0.114050
H23   H     H_    0.325126 0.849745 0.180240 0.086939
H24   H     H_    0.679413 0.059256 0.802932 0.097791
H25   H     H_    0.673203 0.357626 0.029352 0.099145
H26   H     H_    0.328270 0.621677 0.897964 0.118856
H27   H     H_    0.671526 0.009226 0.345216 0.130115
H28   H     H_    0.326286 0.878803 0.623748 0.123562
H29   H     H_    0.321998 0.186368 0.861026 0.110303
H30   H     H_    0.680462 0.805490 0.054968 0.110500
H31   H     H_    0.767060 0.374946 0.197712 0.131916
H32   H     H_    0.171628 0.641626 0.815272 0.107436
H33   H     H_    0.239873 0.939836 0.117906 0.094510
H34   H     H_    0.832510 0.155742 0.982118 0.085532
H35   H     H_    0.239193 0.021879 0.480303 0.112393
H36   H     H_    0.878642 0.938516 0.439915 0.128972
N1    N     N_R   0.293810 0.002730 0.945950 -0.036663
N2    N     N_R   0.706190 0.997270 0.054050 -0.038471
N3    N     N_R   0.706160 0.152130 0.208910 -0.057960
N4    N     N_R   0.293840 0.847870 0.791090 -0.056045
N5    N     N_R   0.443140 0.945920 0.152090 -0.040623
N6    N     N_R   0.556860 0.054080 0.847910 -0.046499
N7    N     N_R   0.556830 0.208940 0.002760 -0.041791
N8    N     N_R   0.443170 0.791060 0.997240 -0.051814
N9    N     N_R   0.556790 0.002750 0.208910 -0.039571
N10   N     N_R   0.443210 0.997250 0.791090 -0.034707
N11   N     N_R   0.443180 0.152110 0.945950 -0.041375
N12   N     N_R   0.556820 0.847890 0.054050 -0.049144
N13   N     N_R   0.706170 0.208950 0.152090 -0.054779
N14   N     N_R   0.293830 0.791050 0.847910 -0.047946
N15   N     N_R   0.293800 0.945910 0.002760 -0.044486
N16   N     N_R   0.706200 0.054090 0.997240 -0.039329
Ni1   Ni    Ni4+2 0.369690 0.999990 0.869700 0.256245
Ni2   Ni    Ni4+2 0.630310 0.000010 0.130300 0.236093
Ni3   Ni    Ni4+2 0.369670 0.869670 0.000000 0.212356
Ni4   Ni    Ni4+2 0.630330 0.130330 0.000000 0.211758
I1    I     I_    0.379983 0.496056 0.703399 -0.407914
I2    I     I_    0.610916 0.491142 0.203781 -0.431248
I3    I     I_    0.862969 0.198961 0.437506 -0.517088
I4    I     I_    0.128485 0.870606 0.623703 -0.510828

loop_
_geom_bond_atom_site_label_1
_geom_bond_atom_site_label_2
_ccdc_geom_bond_type
C18   H10   S    
C23   N3    A    
N4    N14   A    
C3    C23   A    
N8    N12   A    
N3    Ni2   S    
C42   H20   S    
C46   N6    A    
C35   H15   S    
C7    C26   S    
C58   N16   A    
C35   C37   A    
C54   H30   S    
C44   H22   S    
C1    C59   A    
C23   I3    S    
N1    N15   A    
C2    C60   A    
C57   C59   A    
C24   N4    A    
C58   C60   A    
N3    N13   A    
C15   C17   A    
N12   Ni2   S    
N11   Ni1   S    
C21   I1    S    
C36   H16   S    
N13   Ni4   S    
C47   C60   S    
C3    C55   A    
C9    C19   A    
C10   C20   A    
C55   H31   S    
C31   C33   A    
C13   C28   S    
N6    N10   A    
C16   H8    S    
C14   C27   S    
C43   C47   A    
C18   C20   A    
C20   H36   S    
C52   N10   A    
C38   C40   A    
C57   H33   S    
C4    C56   A    
C29   C31   A    
C8    C25   S    
C41   C43   A    
C45   H23   S    
C42   C44   A    
C10   C12   A    
C56   N14   A    
N5    N9    A    
C24   I4    S    
N2    N16   A    
N10   Ni1   S    
C49   H25   S    
N9    Ni2   S    
C52   H28   S    
N6    Ni4   S    
C7    C49   A    
C8    C54   A    
C38   H18   S    
C3    C34   S    
C5    C45   A    
C29   C34   A    
C32   C34   A    
C49   N7    A    
N8    Ni3   S    
N15   Ni3   S    
C53   N11   A    
C51   N9    A    
C15   H7    S    
C9    C11   A    
C45   N5    A    
C46   H24   S    
C21   C28   A    
C12   C14   A    
C22   C27   A    
C13   C15   A    
C53   H29   S    
N5    Ni3   S    
C14   C16   A    
C7    C53   A    
C1    N1    A    
C8    C50   A    
N16   Ni4   S    
C19   H35   S    
C43   H21   S    
C48   C59   S    
C22   I2    S    
C21   C25   A    
C4    C33   S    
C32   H14   S    
C6    C46   A    
C30   C33   A    
C9    H3    S    
C36   C39   A    
C10   H4    S    
N4    Ni1   S    
C1    H1    S    
C41   H19   S    
C30   H12   S    
C25   C27   A    
N2    Ni2   S    
C51   H27   S    
C26   C28   A    
C54   N12   A    
C5    C39   S    
C35   C40   A    
C58   H34   S    
C37   C39   A    
C44   C48   A    
C30   C32   A    
C11   C13   A    
C57   N15   A    
C12   H6    S    
C4    C24   A    
C36   C38   A    
C17   C19   A    
C41   C48   A    
N7    Ni4   S    
C6    C40   S    
C42   C47   A    
C31   H13   S    
C50   H26   S    
C2    H2    S    
C56   H32   S    
C37   H17   S    
C2    N2    A    
C16   C18   A    
C22   C26   A    
C5    C51   A    
N7    N11   A    
C17   H9    S    
C6    C52   A    
N1    Ni1   S    
N14   Ni3   S    
C55   N13   A    
C50   N8    A    
C11   H5    S    
C29   H11   S    
