data_mof_unit_pretest_655.cif
_audit_creation_date              2012-10-26T18:50:43-0400
_audit_creation_method            fapswitch 2.2
_symmetry_space_group_name_H-M    P1
_symmetry_Int_Tables_number       1
_space_group_crystal_system       triclinic
_cell_length_a                    12.363213
_cell_length_b                    13.239955
_cell_length_c                    17.275169
_cell_angle_alpha                 105.215516
_cell_angle_beta                  74.149577
_cell_angle_gamma                 116.651865
_cell_volume                      2398.78200722

loop_
_atom_site_label
_atom_site_type_symbol
_atom_type_description
_atom_site_fract_x
_atom_site_fract_y
_atom_site_fract_z
_atom_type_partial_charge
C1    C     C_R   0.144886 0.713337 0.506484 0.507367
C2    C     C_R   0.024228 0.498935 0.262655 -0.008885
C3    C     C_R   0.743419 0.968718 0.412575 0.015940
C4    C     C_R   0.985605 0.501585 0.651743 0.492879
C5    C     C_R   0.775490 0.164617 0.475294 -0.029114
C6    C     C_R   0.179580 0.917208 0.548392 -0.109082
C7    C     C_R   0.256417 0.032582 0.560653 -0.109913
C8    C     C_R   0.383054 0.068244 0.536690 -0.093634
C9    C     C_R   0.436258 0.988512 0.496751 0.053070
C10   C     C_R   0.356281 0.872522 0.475838 0.032033
C11   C     C_R   0.566020 0.020269 0.476072 0.033744
C12   C     C_R   0.873813 0.403125 0.772070 0.004525
C13   C     C_R   0.614258 0.938011 0.430521 0.017571
C14   C     C_R   0.532499 0.829032 0.400933 -0.123805
C15   C     C_R   0.406914 0.797772 0.421986 -0.088743
C16   C     C_R   0.856077 0.286463 0.488589 0.535539
C17   C     C_R   0.649194 0.131766 0.499894 -0.121815
C18   C     C_R   0.822542 0.083108 0.433721 -0.091137
C19   C     C_R   0.227860 0.835642 0.507932 -0.006773
C20   C     C_R   0.639659 0.677167 0.625308 -0.098041
C21   C     C_R   0.248833 0.350154 0.390900 0.023148
C22   C     C_R   0.345797 0.314680 0.367476 -0.018626
C23   C     C_R   0.942654 0.406892 0.138305 -0.094400
C24   C     C_R   0.446095 0.371266 0.408607 -0.107583
C25   C     C_R   0.449815 0.462614 0.473229 -0.029548
C26   C     C_R   0.347130 0.494180 0.494932 0.173683
C27   C     C_R   0.550656 0.523665 0.517584 -0.016937
C28   C     C_R   0.013715 0.497585 0.348156 0.525121
C29   C     C_R   0.544900 0.614268 0.581243 0.003080
C30   C     C_R   0.444150 0.642662 0.601687 -0.162662
C31   C     C_R   0.347344 0.583357 0.560040 -0.081034
C32   C     C_R   0.657279 0.499964 0.502327 0.034131
C33   C     C_R   0.742527 0.651926 0.608130 0.158593
C34   C     C_R   0.934432 0.410751 0.220714 -0.125889
C35   C     C_R   0.972330 0.496130 0.737012 -0.038356
C36   C     C_R   0.059582 0.582197 0.783452 0.000038
C37   C     C_R   0.050367 0.571417 0.863556 -0.063274
C38   C     C_R   0.955972 0.477278 0.897484 -0.016168
C39   C     C_R   0.866594 0.395774 0.852742 -0.067470
C40   C     C_2   0.158425 0.684927 0.749869 0.225358
C41   C     C_2   0.798289 0.883697 0.373408 0.233604
C42   C     C_2   0.840979 0.725071 0.657269 0.247522
C43   C     C_2   0.340272 0.217759 0.300064 0.238526
C44   C     C_2   0.215384 0.683524 0.266371 0.245087
C45   C     C_R   0.124066 0.584629 0.221908 0.011765
C46   C     C_2   0.779916 0.311597 0.724856 0.244377
C47   C     C_R   0.132294 0.578742 0.138576 -0.061323
C48   C     C_R   0.040830 0.491961 0.097197 0.013308
C49   C     C_2   0.947469 0.463366 0.980658 -0.122804
C50   C     C_2   0.048254 0.495802 0.011850 -0.121578
Cu1   Cu    Cu3+1 0.900140 0.524980 0.518800 0.931295
Cu2   Cu    Cu3+1 0.099860 0.475020 0.481200 0.921162
H1    H     H_    0.207058 0.644710 0.106411 0.167642
H2    H     H_    0.793017 0.324554 0.880469 0.173175
H3    H     H_    0.872740 0.337120 0.106914 0.133508
H4    H     H_    0.856318 0.425113 0.016371 0.136415
H5    H     H_    0.115550 0.637755 0.900163 0.170075
H6    H     H_    0.158810 0.701764 0.691633 0.102403
H7    H     H_    0.563831 0.766819 0.359477 0.110657
H8    H     H_    0.743757 0.792806 0.372960 0.109034
H9    H     H_    0.351528 0.714619 0.392603 0.159115
H10   H     H_    0.916714 0.705190 0.655097 0.170542
H11   H     H_    0.858402 0.344391 0.251812 0.130412
H12   H     H_    0.921283 0.109084 0.417202 0.172081
H13   H     H_    0.632835 0.746533 0.673713 0.170342
H14   H     H_    0.171120 0.306808 0.359572 0.125494
H15   H     H_    0.261906 0.175392 0.269045 0.124062
H16   H     H_    0.273956 0.610381 0.581506 0.182201
H17   H     H_    0.197592 0.700445 0.332321 0.105376
H18   H     H_    0.139127 0.533780 0.975661 0.133732
H19   H     H_    0.784946 0.313104 0.661636 0.130230
H20   H     H_    0.618357 0.196089 0.537222 0.129733
H21   H     H_    0.082069 0.891797 0.571991 0.159140
H22   H     H_    0.435803 0.159222 0.549087 0.108910
H23   H     H_    0.217793 0.094831 0.591167 0.139961
H24   H     H_    0.439547 0.711659 0.651097 0.157370
H25   H     H_    0.668639 0.432305 0.454780 0.127418
H26   H     H_    0.519764 0.342579 0.389415 0.147565
N1    N     N_R   0.749710 0.562810 0.547300 -0.261345
N2    N     N_R   0.249640 0.437820 0.453210 -0.243966
O1    O     O_R   0.025490 0.682370 0.523640 -0.522450
O2    O     O_2   0.907127 0.914687 0.342406 -0.495178
O3    O     O_2   0.838603 0.812159 0.702935 -0.523316
O4    O     O_2   0.422590 0.183827 0.278387 -0.475961
O5    O     O_2   0.310625 0.748278 0.229869 -0.482955
O6    O     O_2   0.695043 0.232546 0.756218 -0.488797
O7    O     O_R   0.194150 0.640180 0.491890 -0.540858
O8    O     O_R   0.905900 0.523560 0.631310 -0.533582
O9    O     O_R   0.074570 0.481370 0.599560 -0.510451
O10   O     O_R   0.805850 0.359820 0.508110 -0.514424
O11   O     O_R   0.974510 0.317630 0.476360 -0.501668
O12   O     O_R   0.925430 0.518630 0.400440 -0.491333
O13   O     O_R   0.094100 0.476440 0.368690 -0.508897
O14   O     O_2   0.240586 0.752870 0.787248 -0.495287

loop_
_geom_bond_atom_site_label_1
_geom_bond_atom_site_label_2
_ccdc_geom_bond_type
C1    O7    A    
C16   O10   A    
C21   H14   S    
C27   C29   A    
C35   C36   A    
C7    C8    A    
C38   C49   S    
C6    C19   A    
C29   C30   A    
C33   C42   S    
C36   C37   A    
C10   C15   A    
Cu1   O10   S    
C30   C31   A    
C39   H2    S    
C5    C17   A    
C1    O1    A    
C3    C18   A    
C5    C16   S    
C32   H25   S    
C11   C17   A    
C47   C48   A    
C8    C9    A    
C13   C14   A    
C9    C10   A    
Cu1   O1    S    
C3    C13   A    
C47   H1    S    
C2    C34   A    
C48   C50   S    
C4    C35   S    
C26   C31   A    
C21   C22   A    
C43   O4    D    
Cu2   O9    S    
C20   C29   A    
C45   C47   A    
C2    C45   A    
C31   H16   S    
C1    C19   S    
C40   H6    S    
Cu1   Cu2   S    
C20   H13   S    
C36   C40   S    
C24   C25   A    
C12   C46   S    
C33   N1    A    
C7    H23   S    
C5    C18   A    
C25   C26   A    
C26   N2    A    
C28   O13   A    
C37   C38   A    
C14   H7    S    
Cu1   O12   S    
C30   H24   S    
C22   C43   S    
C10   C19   A    
C23   C34   A    
C8    H22   S    
C15   H9    S    
Cu2   O13   S    
C28   O12   A    
C12   C35   A    
C9    C11   A    
C46   H19   S    
C16   O11   A    
C20   C33   A    
C24   H26   S    
C22   C24   A    
C44   O5    D    
C44   C45   S    
C6    H21   S    
C4    O9    A    
C42   H10   S    
C3    C41   S    
C23   C48   A    
C27   C32   A    
Cu2   O7    S    
C42   O3    D    
C41   H8    S    
C40   O14   D    
Cu1   O8    S    
C23   H3    S    
C6    C7    A    
C4    O8    A    
C25   C27   A    
C49   H4    S    
C12   C39   A    
C50   H18   S    
C32   N1    A    
C11   C13   A    
C18   H12   S    
C38   C39   A    
C41   O2    D    
C21   N2    A    
C34   H11   S    
Cu1   N1    S    
C17   H20   S    
C43   H15   S    
C49   C50   D    
C44   H17   S    
C14   C15   A    
Cu2   O11   S    
C2    C28   S    
Cu2   N2    S    
C37   H5    S    
C46   O6    D    
