data_mof_unit_pretest_454.cif
_audit_creation_date              2012-10-26T20:58:16-0400
_audit_creation_method            fapswitch 2.2
_symmetry_space_group_name_H-M    P1
_symmetry_Int_Tables_number       1
_space_group_crystal_system       triclinic
_cell_length_a                    10.640659
_cell_length_b                    14.712787
_cell_length_c                    14.733208
_cell_angle_alpha                 65.215702
_cell_angle_beta                  103.277405
_cell_angle_gamma                 102.565615
_cell_volume                      2018.82426668

loop_
_atom_site_label
_atom_site_type_symbol
_atom_type_description
_atom_site_fract_x
_atom_site_fract_y
_atom_site_fract_z
_atom_type_partial_charge
C1    C     C_R   0.478511 0.119497 0.312491 0.578921
C2    C     C_R   0.484279 0.533573 0.948712 -0.034013
C3    C     C_R   0.421703 0.491652 0.876557 0.006207
C4    C     C_R   0.578266 0.508344 0.123443 0.006215
C5    C     C_R   0.375922 0.389526 0.904957 0.378590
C6    C     C_R   0.624034 0.610470 0.095046 0.378597
C7    C     C_R   0.732928 0.292359 0.654471 -0.123643
C8    C     C_R   0.267071 0.707642 0.345528 -0.123642
C9    C     C_R   0.695564 0.209248 0.627770 0.072568
C10   C     C_R   0.304437 0.790753 0.372228 0.072569
C11   C     C_R   0.511922 0.281452 0.515921 0.140746
C12   C     C_R   0.521486 0.880502 0.687509 0.578919
C13   C     C_R   0.488075 0.718546 0.484082 0.140752
C14   C     C_R   0.551388 0.372732 0.532176 0.027670
C15   C     C_R   0.448607 0.627266 0.467828 0.027672
C16   C     C_R   0.259761 0.000751 0.500042 0.565720
C17   C     C_R   0.740239 0.999248 0.499958 0.565722
C18   C     C_R   0.659524 0.373102 0.608625 -0.003484
C19   C     C_R   0.340473 0.626897 0.391377 -0.003481
C20   C     C_R   0.484311 0.460265 0.480850 0.020611
C21   C     C_R   0.515683 0.539732 0.519154 0.020610
C22   C     C_R   0.611445 0.526898 0.607673 0.241333
C23   C     C_R   0.517820 0.287710 0.175958 0.390606
C24   C     C_R   0.388548 0.473099 0.392331 0.241339
C25   C     C_R   0.687886 0.449622 0.644904 -0.043593
C26   C     C_R   0.312109 0.550376 0.355099 -0.043589
C27   C     C_3   0.017159 0.010634 0.408049 -0.138643
C28   C     C_3   0.982841 0.989365 0.591951 -0.138644
C29   C     C_3   0.960358 0.087050 0.429454 -0.120095
C30   C     C_3   0.039642 0.912950 0.570546 -0.120096
C31   C     C_3   0.876458 0.998044 0.499577 0.003341
C32   C     C_3   0.123542 0.001956 0.500423 0.003341
C33   C     C_3   0.931922 0.922473 0.478412 0.252390
C34   C     C_R   0.482168 0.712288 0.824038 0.390612
C35   C     C_3   0.068078 0.077527 0.521588 0.252390
C36   C     C_R   0.458902 0.186933 0.205303 0.035302
C37   C     C_R   0.541085 0.813066 0.794697 0.035300
C38   C     C_R   0.350632 0.220527 0.033817 -0.105725
C39   C     C_R   0.649328 0.779471 0.966189 -0.105727
C40   C     C_R   0.376007 0.153407 0.133754 -0.204219
C41   C     C_R   0.623966 0.846592 0.866251 -0.204220
C42   C     C_R   0.478822 0.359969 0.078753 0.008169
C43   C     C_R   0.521155 0.640029 0.921246 0.008169
C44   C     C_R   0.400484 0.323461 0.005717 0.010233
C45   C     C_R   0.599480 0.676536 0.994285 0.010231
C46   C     C_R   0.515697 0.466424 0.051286 -0.034016
Cl1   Cl    Cl    0.628697 0.590288 0.689461 -0.619905
Cl2   Cl    Cl    0.371295 0.409707 0.310542 -0.619910
Cl3   Cl    Cl    0.843453 0.817812 0.449461 -0.539570
Cl4   Cl    Cl    0.156547 0.182188 0.550539 -0.539573
Cu1   Cu    Cu3+1 0.465750 0.918270 0.475680 1.042489
Cu2   Cu    Cu3+1 0.534250 0.081730 0.524320 1.042485
F1    F     F_    0.310478 0.354892 0.832410 -0.606886
F2    F     F_    0.689456 0.645104 0.167596 -0.606888
F3    F     F_    0.378733 0.689359 0.760016 -0.625658
F4    F     F_    0.621266 0.310641 0.239972 -0.625656
H1    H     H_    0.925836 0.158419 0.372140 0.179430
H2    H     H_    0.966583 0.981166 0.666954 0.145060
H3    H     H_    0.668991 0.924598 0.844997 0.141884
H4    H     H_    0.330980 0.075400 0.155011 0.141880
H5    H     H_    0.289120 0.192124 0.979113 0.199593
H6    H     H_    0.710828 0.807874 0.020896 0.199595
H7    H     H_    0.408514 0.535268 0.796443 0.259612
H8    H     H_    0.591452 0.464726 0.203556 0.259611
H9    H     H_    0.763961 0.444453 0.709423 0.168326
H10   H     H_    0.236035 0.555546 0.290578 0.168324
H11   H     H_    0.074164 0.841580 0.627859 0.179428
H12   H     H_    0.580179 0.732886 0.527375 0.218797
H13   H     H_    0.419816 0.267110 0.472632 0.218798
H14   H     H_    0.247905 0.853096 0.337324 0.134623
H15   H     H_    0.752098 0.146906 0.662673 0.134627
H16   H     H_    0.817252 0.292705 0.711945 0.128582
H17   H     H_    0.182748 0.707296 0.288053 0.128576
H18   H     H_    0.033417 0.018834 0.333046 0.145059
N1    N     N_R   0.585750 0.204560 0.560800 -0.245931
N2    N     N_R   0.414250 0.795440 0.439200 -0.245929
O1    O     O_R   0.454850 0.022100 0.338110 -0.534774
O2    O     O_R   0.545150 0.977900 0.661890 -0.534774
O3    O     O_R   0.512700 0.160150 0.379180 -0.424366
O4    O     O_R   0.487300 0.839850 0.620820 -0.424361
O5    O     O_R   0.287930 0.931000 0.479440 -0.507067
O6    O     O_R   0.712070 0.069000 0.520560 -0.507068
O7    O     O_R   0.345780 0.069050 0.520520 -0.473239
O8    O     O_R   0.654220 0.930950 0.479480 -0.473236

loop_
_geom_bond_atom_site_label_1
_geom_bond_atom_site_label_2
_ccdc_geom_bond_type
C38   C40   A    
C40   H4    S    
C6    C45   A    
C27   C29   S    
C34   C37   A    
C1    O1    A    
C14   C18   A    
Cu2   N1    S    
C23   F4    S    
C39   C41   A    
C4    C46   A    
C27   C33   S    
C15   C19   A    
C23   C42   A    
C5    F1    S    
C24   C26   A    
C11   C14   A    
C33   Cl3   S    
C17   O6    A    
C42   C46   A    
C12   C37   S    
C19   C26   A    
Cu1   O4    S    
C16   O5    A    
C10   N2    A    
C20   C24   A    
C28   C35   S    
C22   C25   A    
C12   O2    A    
C31   C33   S    
C27   H18   S    
Cu1   O5    S    
C30   H11   S    
C39   C45   A    
C38   H5    S    
C22   Cl1   S    
C34   F3    S    
C21   C22   A    
C18   C25   A    
C42   C44   A    
C6    F2    S    
Cu2   O2    S    
C8    C19   A    
Cu1   Cu2   S    
C26   H10   S    
C32   C35   S    
C14   C20   A    
C36   C40   A    
C25   H9    S    
Cu1   N2    S    
C41   H3    S    
C4    C6    A    
C7    H16   S    
C16   O7    A    
C2    C46   A    
C24   Cl2   S    
Cu2   O7    S    
Cu1   O1    S    
C38   C44   A    
C13   N2    A    
C2    C43   A    
C7    C18   A    
C35   Cl4   S    
Cu2   O6    S    
C43   C45   A    
C10   H14   S    
C5    C44   A    
C29   H1    S    
C3    H7    S    
C13   C15   A    
C17   C31   S    
Cu2   O3    S    
C7    C9    A    
C39   H6    S    
C4    H8    S    
C30   C33   S    
C27   C32   S    
C28   C31   S    
C34   C43   A    
C9    H15   S    
C3    C5    A    
C11   H13   S    
C28   H2    S    
C16   C32   S    
C29   C35   S    
C17   O8    A    
C28   C30   S    
C2    C3    A    
C29   C31   S    
C11   N1    A    
C30   C32   S    
C1    O3    A    
C12   O4    A    
C8    H17   S    
C37   C41   A    
C15   C21   A    
C20   C21   A    
C8    C10   A    
C23   C36   A    
C9    N1    A    
Cu1   O8    S    
C1    C36   S    
C13   H12   S    
