data_mof_unit_pretest_56.cif
_audit_creation_date              2013-03-05T16:32:50-0500
_audit_creation_method            fapswitch 2.2
_symmetry_space_group_name_H-M    P1
_symmetry_Int_Tables_number       1
_space_group_crystal_system       triclinic
_cell_length_a                    19.322996
_cell_length_b                    10.851304
_cell_length_c                    9.553022
_cell_angle_alpha                 90.512165
_cell_angle_beta                  90.267453
_cell_angle_gamma                 90.795151
_cell_volume                      2002.77891002

loop_
_atom_site_label
_atom_site_type_symbol
_atom_site_description
_atom_site_fract_x
_atom_site_fract_y
_atom_site_fract_z
_atom_type_partial_charge
O1    O     O_R   0.500000 0.319640 0.618810 -0.564392
O2    O     O_R   0.500010 0.319680 0.381230 -0.564923
C1    C     C_R   0.497923 0.262531 0.499459 0.798465
O3    O     O_R   0.400140 0.499970 0.618830 -0.594590
O4    O     O_R   0.400150 0.500010 0.381250 -0.597346
C2    C     C_R   0.367389 0.499005 0.499618 0.808605
Cu1   Cu    Cu3+1 0.500000 0.499980 0.640670 1.001749
Cu2   Cu    Cu3+1 0.500000 0.500020 0.359330 0.986920
O5    O     O_R   0.499990 0.680320 0.618770 -0.585340
O6    O     O_R   0.500000 0.680360 0.381190 -0.593431
O7    O     O_R   0.599850 0.499990 0.618750 -0.562668
O8    O     O_R   0.599860 0.500030 0.381170 -0.577989
C3    C     C_R   0.499633 0.737790 0.500322 0.854864
C4    C     C_R   0.632473 0.497642 0.500351 0.848423
C5    C     C_R   0.254356 0.468851 0.620334 -0.149768
H1    H     H_    0.281053 0.454036 0.718547 0.165282
C6    C     C_R   0.182389 0.461555 0.617384 -0.155727
H2    H     H_    0.154947 0.443664 0.713922 0.197147
C7    C     C_R   0.145927 0.480663 0.492352 -0.066280
C8    C     C_R   0.182587 0.504468 0.367331 0.354276
C9    C     C_R   0.255016 0.512136 0.372012 -0.229241
H3    H     H_    0.283144 0.529802 0.276280 0.182175
C10   C     C_R   0.291250 0.494476 0.497810 -0.096396
N1    N     N_R   0.034824 0.573885 0.434257 -0.151377
N2    N     N_R   0.966149 0.576834 0.440790 -0.188437
C11   C     C_R   0.930211 0.488939 0.511298 0.461014
N3    N     N_R   0.965652 0.397219 0.573913 -0.144941
N4    N     N_R   0.034404 0.394544 0.568067 -0.184651
C12   C     C_R   0.070096 0.482424 0.497313 0.461284
C13   C     C_R   0.814814 0.439060 0.624518 0.365769
C14   C     C_R   0.742400 0.437384 0.615301 -0.140098
H4    H     H_    0.712414 0.396229 0.698645 0.204938
C15   C     C_R   0.708343 0.491985 0.502402 -0.094020
C16   C     C_R   0.747198 0.543654 0.394273 -0.108015
H5    H     H_    0.722144 0.586377 0.306476 0.166012
C17   C     C_R   0.819112 0.542952 0.399723 -0.123907
H6    H     H_    0.847630 0.582607 0.313359 0.201340
C18   C     C_R   0.853897 0.491063 0.513983 -0.083110
C19   C     C_R   0.491499 0.065651 0.624709 0.028497
C20   C     C_R   0.490600 0.129680 0.498948 -0.120646
C21   C     C_R   0.481472 0.062960 0.373180 -0.136520
H7    H     H_    0.476390 0.109692 0.274012 0.205643
C22   C     C_R   0.482705 0.934226 0.373923 -0.171379
H8    H     H_    0.477504 0.884951 0.275252 0.170867
C23   C     C_R   0.494475 0.871151 0.499952 -0.040857
C24   C     C_R   0.496604 0.939279 0.624684 -0.004675
C25   C     C_3   0.544879 0.941983 0.749130 0.044374
C26   C     C_3   0.537147 0.081553 0.750519 0.138802
H9    H     H_    0.523168 0.894822 0.842256 0.124726
H10   H     H_    0.585539 0.135116 0.729402 0.144681
C27   C     C_R   0.558862 0.527407 0.074670 0.264938
N5    N     N_R   0.500440 0.500930 0.147930 -0.197448
C28   C     C_R   0.443341 0.462209 0.073362 -0.015005
H11   H     H_    0.397174 0.432530 0.127609 0.144575
C29   C     C_R   0.443154 0.463075 0.924775 0.012863
H12   H     H_    0.396795 0.434243 0.869260 0.145291
N6    N     N_R   0.500440 0.500890 0.852020 -0.225256
C30   C     C_R   0.559843 0.522666 0.927266 0.219757
C31   C     C_3   0.604161 0.636278 0.922044 0.109733
C32   C     C_3   0.598783 0.645785 0.080381 -0.528196
H13   H     H_    0.579737 0.712205 0.864512 0.137881
H14   H     H_    0.648757 0.637872 0.136256 0.232382
H15   H     H_    0.566641 0.724241 0.115857 0.187477
N7    N     N_R   0.616658 0.908803 0.719212 0.127973
O9    O     O_R   0.634917 0.863861 0.598361 -0.329146
O10   O     O_R   0.663958 0.930591 0.813911 -0.270372
N8    N     N_R   0.499596 0.126497 0.873051 0.133147
O11   O     O_R   0.529029 0.206939 0.956527 -0.351581
O12   O     O_R   0.438089 0.084009 0.902739 -0.366578
N9    N     N_R   0.674680 0.609715 0.876234 0.160829
O13   O     O_R   0.703681 0.677047 0.780528 -0.254485
O14   O     O_R   0.710205 0.522869 0.934860 -0.332357
N10   N     N_R   0.147699 0.516239 0.234781 0.133068
O15   O     O_R   0.174207 0.585627 0.137794 -0.332547
O16   O     O_R   0.095130 0.444869 0.203214 -0.299199
N11   N     N_R   0.847050 0.394204 0.749532 0.153054
O17   O     O_R   0.821286 0.298107 0.812231 -0.275592
O18   O     O_R   0.893434 0.461642 0.814587 -0.270327

loop_
_geom_bond_atom_site_label_1
_geom_bond_atom_site_label_2
_geom_bond_distance
_ccdc_geom_bond_type
C29   H12   1.080012 S    
C21   C22   1.397553 A    
C21   H7    1.083230 S    
C7    C8    1.415379 A    
C4    C15   1.468227 S    
Cu1   Cu2   2.687651 S    
C25   H9    1.111310 S    
C28   H11   1.080461 S    
Cu1   O7    1.941702 S    
C11   N3    1.357602 A    
C32   H15   1.112155 S    
N4    C12   1.356281 A    
N11   O18   1.301362 A    
C13   C14   1.401482 A    
O7    C4    1.297655 A    
C5    H1    1.082918 S    
C13   C18   1.417753 A    
C32   H14   1.105930 S    
C16   H5    1.078040 S    
N10   O15   1.301503 A    
O5    C3    1.296921 A    
N1    C12   1.355730 A    
C14   H4    1.082839 S    
C14   C15   1.401053 A    
N9    O13   1.299672 A    
Cu2   N5    2.019678 S    
C26   H10   1.114305 S    
C31   C32   1.519327 S    
C9    H3    1.083238 S    
N10   O16   1.301422 A    
O3    Cu1   1.939871 S    
C6    H2    1.083647 S    
C28   C29   1.419552 A    
C9    C10   1.403971 A    
C31   H13   1.104579 S    
N8    O11   1.300336 A    
N11   O17   1.301355 A    
O3    C2    1.300167 A    
C25   N7    1.466555 S    
C11   C18   1.475466 S    
N2    C11   1.357595 A    
C23   C24   1.396783 A    
C27   N5    1.359660 A    
O1    C1    1.293007 A    
N7    O10   1.300805 A    
C22   H8    1.083108 S    
C13   N11   1.436321 S    
C25   C26   1.523872 S    
Cu2   O8    1.939869 S    
C15   C16   1.396766 A    
C27   C30   1.408861 A    
N1    N2    1.329574 A    
C22   C23   1.409317 A    
C19   C24   1.376213 A    
C20   C21   1.406307 A    
O8    C4    1.299369 A    
C1    C20   1.446541 S    
C29   N6    1.369829 A    
C7    C12   1.466669 S    
C19   C20   1.393364 A    
N5    C28   1.369584 A    
C5    C6    1.391912 A    
C24   C25   1.507519 S    
C17   H6    1.083293 S    
O1    Cu1   1.966178 S    
O2    Cu2   1.969936 S    
O6    C3    1.292727 A    
O4    Cu2   1.941701 S    
N7    O9    1.301409 A    
C17   C18   1.405307 A    
O2    C1    1.293873 A    
C30   C31   1.492622 S    
C3    C23   1.451982 S    
N6    C30   1.368140 A    
O4    C2    1.298540 A    
C2    C10   1.471392 S    
C5    C10   1.401310 A    
C6    C7    1.402380 A    
C8    N10   1.439263 S    
C16   C17   1.390453 A    
C26   N8    1.463591 S    
C31   N9    1.464781 S    
Cu1   O5    1.969936 S    
C8    C9    1.401341 A    
Cu2   O6    1.966179 S    
N3    N4    1.330642 A    
N9    O14   1.302603 A    
C27   C32   1.489613 S    
N8    O12   1.302238 A    
Cu1   N6    2.018945 S    
C19   C26   1.494803 S    
