data_mof_unit_pretest_1335.cif
_audit_creation_date              2012-12-10T19:09:38-0500
_audit_creation_method            fapswitch 2.2
_symmetry_space_group_name_H-M    P1
_symmetry_Int_Tables_number       1
_space_group_crystal_system       triclinic
_cell_length_a                    9.539312
_cell_length_b                    10.817015
_cell_length_c                    17.03523
_cell_angle_alpha                 89.388841
_cell_angle_beta                  93.866737
_cell_angle_gamma                 89.903845
_cell_volume                      1753.70592485

loop_
_atom_site_label
_atom_site_type_symbol
_atom_type_description
_atom_site_fract_x
_atom_site_fract_y
_atom_site_fract_z
_atom_type_partial_charge
C1    C     C_R   0.500257 0.262290 0.501865 0.808500
C2    C     C_R   0.652973 0.520817 0.780696 -0.243033
C3    C     C_R   0.579360 0.416524 0.145035 -0.008479
C4    C     C_R   0.587145 0.434943 0.226429 -0.278950
C5    C     C_R   0.457535 0.457633 0.099641 0.313983
C6    C     C_R   0.474402 0.487584 0.263189 -0.055535
C7    C     C_R   0.352663 0.522663 0.218027 -0.207393
C8    C     C_R   0.344485 0.507462 0.136916 -0.189110
C9    C     C_R   0.627121 0.063280 0.512556 0.154483
C10   C     C_R   0.500992 0.129143 0.510430 -0.102285
C11   C     C_R   0.375347 0.064382 0.519787 -0.218650
C12   C     C_R   0.517289 0.498267 0.651070 0.795868
C13   C     C_R   0.375183 0.935505 0.519405 -0.214073
C14   C     C_R   0.500661 0.870693 0.509730 -0.096922
C15   C     C_R   0.626888 0.936069 0.512032 0.119895
C16   C     C_3   0.744735 0.930751 0.458692 -0.492158
C17   C     C_3   0.745451 0.071090 0.459597 -0.434893
C18   C     C_R   0.068777 0.591173 0.461531 0.236457
C19   C     C_R   0.080477 0.417103 0.544058 -0.188083
C20   C     C_R   0.930486 0.418117 0.545915 0.531524
C21   C     C_R   0.921420 0.591113 0.461451 0.158585
C22   C     C_3   0.904992 0.620627 0.375671 -0.457936
C23   C     C_R   0.500039 0.737718 0.501476 0.800181
C24   C     C_3   0.063846 0.620013 0.375645 -0.479369
C25   C     C_R   0.482795 0.499298 0.349015 0.802048
C26   C     C_R   0.525627 0.497103 0.737371 -0.026360
C27   C     C_R   0.404215 0.473625 0.777150 -0.231054
C28   C     C_R   0.409750 0.473618 0.858818 -0.160046
C29   C     C_R   0.537617 0.497144 0.902507 0.407559
C30   C     C_R   0.658379 0.521396 0.862741 -0.174041
Cu1   Cu    Cu3+1 0.640670 0.499980 0.500000 0.976010
Cu2   Cu    Cu3+1 0.359330 0.500020 0.500000 0.941644
H1    H     H_    0.679108 0.403230 0.261848 0.186110
H2    H     H_    0.276161 0.887487 0.522691 0.164989
H3    H     H_    0.841229 0.888791 0.488117 0.200266
H4    H     H_    0.711727 0.892267 0.400078 0.198740
H5    H     H_    0.842138 0.109991 0.489898 0.225722
H6    H     H_    0.713697 0.114011 0.401468 0.196529
H7    H     H_    0.142482 0.347728 0.576651 0.155369
H8    H     H_    0.855496 0.544583 0.340395 0.225308
H9    H     H_    0.858068 0.713477 0.363631 0.191339
H10   H     H_    0.103673 0.542624 0.341060 0.218371
H11   H     H_    0.108910 0.712305 0.363206 0.191236
H12   H     H_    0.757075 0.540360 0.895558 0.145414
H13   H     H_    0.747820 0.540150 0.751283 0.150121
H14   H     H_    0.264799 0.563712 0.245099 0.154098
H15   H     H_    0.313681 0.456133 0.887442 0.151876
H16   H     H_    0.250744 0.537458 0.102464 0.154792
H17   H     H_    0.304528 0.455031 0.745215 0.155790
H18   H     H_    0.276396 0.112623 0.523309 0.163583
N1    N     N_2   0.548300 0.499456 0.985945 -0.231196
N2    N     N_2   0.445468 0.452914 0.016658 -0.241462
N3    N     N_R   0.147870 0.500930 0.499500 -0.202418
N4    N     N_R   0.851960 0.500890 0.499500 -0.222512
O1    O     O_R   0.618810 0.319640 0.500000 -0.528538
O2    O     O_R   0.381230 0.319680 0.499990 -0.591021
O3    O     O_R   0.631790 0.498830 0.613930 -0.565613
O4    O     O_R   0.394210 0.498870 0.613920 -0.588275
O5    O     O_R   0.618770 0.680320 0.500010 -0.578570
O6    O     O_R   0.381190 0.680360 0.500000 -0.583521
O7    O     O_R   0.605790 0.501130 0.386080 -0.589642
O8    O     O_R   0.368210 0.501170 0.386070 -0.578269
O9    O     O_3   0.860581 0.328052 0.586580 -0.558630
C31   C     C_3   0.915871 0.312995 0.665358 0.046803
H19   H     H_    0.827875 0.323333 0.704262 0.183141
H20   H     H_    0.996203 0.382749 0.685343 0.102917
C32   C     C_3   0.975282 0.182860 0.677537 -0.831445
H21   H     H_    0.063059 0.167487 0.639194 0.230017
H22   H     H_    0.014846 0.169719 0.739874 0.220185
H23   H     H_    0.891847 0.113618 0.663120 0.256933
C33   C     C_2   0.696232 0.349287 0.110633 0.853185
O10   O     O_2   0.674288 0.287670 0.051305 -0.572161
O11   O     O_R   0.831417 0.353195 0.147837 -0.782969
H24   H     H_    0.901852 0.303068 0.119423 0.335046

loop_
_geom_bond_atom_site_label_1
_geom_bond_atom_site_label_2
_ccdc_geom_bond_type
C28   H15   S    
C18   C21   A    
C24   H10   S    
O11   H24   S    
Cu1   O7    S    
C19   C20   A    
Cu2   O4    S    
C7    C8    A    
C23   O5    A    
C26   C27   A    
C18   C24   S    
C28   C29   A    
C1    O2    A    
C16   H3    S    
C21   N4    A    
C22   H9    S    
C15   C16   S    
Cu1   O5    S    
C18   N3    A    
C16   C17   S    
C5    N2    S    
C9    C10   A    
C17   H6    S    
C12   O4    A    
C19   N3    A    
C13   C14   A    
C30   H12   S    
C2    H13   S    
C23   O6    A    
C31   C32   S    
N1    N2    D    
C7    H14   S    
C20   N4    A    
C33   O11   S    
C17   H5    S    
C32   H21   S    
C12   C26   S    
C32   H22   S    
C31   H20   S    
C14   C23   S    
C3    C33   S    
C8    H16   S    
C29   C30   A    
Cu1   Cu2   S    
C22   H8    S    
C2    C26   A    
C25   O7    A    
C19   H7    S    
C12   O3    A    
C9    C17   S    
C22   C24   S    
C4    C6    A    
Cu2   O6    S    
C3    C4    A    
Cu2   N3    S    
C29   N1    S    
C4    H1    S    
C1    C10   S    
C3    C5    A    
C5    C8    A    
C6    C7    A    
C2    C30   A    
C32   H23   S    
C31   H19   S    
Cu1   O3    S    
C20   O9    S    
C1    O1    A    
Cu2   O8    S    
C33   O10   D    
C11   H18   S    
C16   H4    S    
C11   C13   A    
C25   O8    A    
Cu1   N4    S    
C9    C15   A    
C10   C11   A    
O9    C31   S    
C6    C25   S    
C13   H2    S    
C27   C28   A    
C24   H11   S    
C14   C15   A    
Cu1   O1    S    
C21   C22   S    
Cu2   O2    S    
C27   H17   S    
