data_mof_unit_pretest_1248.cif
_audit_creation_date              2012-12-10T20:41:48-0500
_audit_creation_method            fapswitch 2.2
_symmetry_space_group_name_H-M    P1
_symmetry_Int_Tables_number       1
_space_group_crystal_system       triclinic
_cell_length_a                    15.139646
_cell_length_b                    15.28423
_cell_length_c                    9.839574
_cell_angle_alpha                 89.993917
_cell_angle_beta                  90.550384
_cell_angle_gamma                 90.000472
_cell_volume                      2276.75102621

loop_
_atom_site_label
_atom_site_type_symbol
_atom_type_description
_atom_site_fract_x
_atom_site_fract_y
_atom_site_fract_z
_atom_type_partial_charge
C1    C     C_R   0.381893 0.878030 0.499038 0.886746
C2    C     C_R   0.929647 0.533121 0.070205 0.252998
C3    C     C_R   0.572888 0.024441 0.073120 -0.147193
C4    C     C_R   0.072911 0.475625 0.073128 -0.147215
C5    C     C_R   0.572927 0.024288 0.929007 -0.148612
C6    C     C_R   0.072948 0.475773 0.929014 -0.148582
C7    C     C_R   0.429874 0.966393 0.927478 0.210824
C8    C     C_R   0.929845 0.533547 0.927466 0.210776
C9    C     C_3   0.336765 0.997463 0.919377 -0.528833
C10   C     C_3   0.836765 0.502400 0.919349 -0.528847
C11   C     C_3   0.336733 0.998915 0.073506 -0.511828
C12   C     C_R   0.382969 0.122881 0.499166 0.887936
C13   C     C_3   0.836735 0.500888 0.073476 -0.511752
C14   C     C_R   0.619836 0.119921 0.500143 0.888122
C15   C     C_R   0.619232 0.879505 0.500186 0.888250
C16   C     C_R   0.119255 0.620473 0.500178 0.888321
C17   C     C_R   0.119818 0.380063 0.500151 0.888050
C18   C     C_R   0.278252 0.213276 0.618343 0.088114
C19   C     C_R   0.274916 0.789856 0.617843 0.086356
C20   C     C_R   0.774863 0.710079 0.617848 0.086378
C21   C     C_R   0.778287 0.286677 0.618350 0.088099
C22   C     C_R   0.318691 0.191080 0.496356 -0.156226
C23   C     C_R   0.882994 0.377100 0.499178 0.887900
C24   C     C_R   0.314801 0.812586 0.495625 -0.153280
C25   C     C_R   0.814686 0.687309 0.495604 -0.153317
C26   C     C_R   0.818785 0.308836 0.496389 -0.156183
C27   C     C_R   0.289672 0.228944 0.372293 0.204823
C28   C     C_R   0.282981 0.777446 0.371045 0.200174
C29   C     C_R   0.782733 0.722340 0.371015 0.200141
C30   C     C_R   0.789890 0.270875 0.372348 0.204846
C31   C     C_R   0.713398 0.780916 0.374121 -0.305827
C32   C     C_R   0.719922 0.213016 0.374647 -0.304330
C33   C     C_R   0.219710 0.286804 0.374627 -0.304353
C34   C     C_R   0.881862 0.621945 0.499028 0.886780
C35   C     C_R   0.213641 0.718874 0.374118 -0.305821
C36   C     C_R   0.680643 0.809600 0.498734 -0.135798
C37   C     C_R   0.683707 0.187624 0.498681 -0.136522
C38   C     C_R   0.183625 0.312303 0.498692 -0.136528
C39   C     C_R   0.180745 0.690307 0.498715 -0.135792
C40   C     C_R   0.708708 0.771100 0.619475 0.126608
C41   C     C_R   0.711428 0.226233 0.619475 0.133177
C42   C     C_R   0.211404 0.273725 0.619492 0.133178
C43   C     C_R   0.208751 0.728841 0.619450 0.126606
C44   C     C_3   0.743375 0.813853 0.745636 -0.467102
C45   C     C_3   0.320458 0.252009 0.742964 -0.463453
C46   C     C_3   0.745864 0.182392 0.744787 -0.483784
C47   C     C_3   0.245885 0.317571 0.744758 -0.483802
C48   C     C_3   0.243370 0.686093 0.745658 -0.467064
C49   C     C_3   0.412789 0.264425 0.228422 -0.745223
C50   C     C_3   0.399878 0.741455 0.216026 -0.748657
C51   C     C_3   0.899396 0.758337 0.215581 -0.748636
C52   C     C_3   0.913218 0.235406 0.228906 -0.745180
C53   C     C_3   0.317069 0.752923 0.743740 -0.472082
C54   C     C_3   0.817060 0.747006 0.743702 -0.472060
C55   C     C_3   0.820450 0.247936 0.743011 -0.463489
C56   C     C_R   0.429684 0.966800 0.070217 0.253005
H1    H     H_    0.331480 0.065704 0.116143 0.229479
H2    H     H_    0.767865 0.113980 0.726543 0.196888
H3    H     H_    0.267894 0.385978 0.726460 0.196877
H4    H     H_    0.266516 0.617967 0.728212 0.198409
H5    H     H_    0.697924 0.805592 0.832791 0.199588
H6    H     H_    0.700909 0.191206 0.832399 0.194789
H7    H     H_    0.200953 0.308775 0.832407 0.194812
H8    H     H_    0.197895 0.694369 0.832776 0.199579
H9    H     H_    0.385948 0.281977 0.722361 0.200786
H10   H     H_    0.383135 0.723826 0.724535 0.200589
H11   H     H_    0.883128 0.776090 0.724444 0.200588
H12   H     H_    0.290636 0.950652 0.118121 0.205748
H13   H     H_    0.885938 0.217954 0.722460 0.200797
H14   H     H_    0.319250 0.207457 0.831776 0.195372
H15   H     H_    0.314793 0.798739 0.831111 0.197918
H16   H     H_    0.814795 0.701189 0.831090 0.197943
H17   H     H_    0.819229 0.292482 0.831811 0.195345
H18   H     H_    0.631219 0.045523 0.128290 0.146081
H19   H     H_    0.131260 0.454595 0.128306 0.146095
H20   H     H_    0.631337 0.044844 0.875483 0.146222
H21   H     H_    0.131374 0.455261 0.875496 0.146199
H22   H     H_    0.330907 0.063125 0.872762 0.218015
H23   H     H_    0.790572 0.549068 0.118116 0.205753
H24   H     H_    0.291429 0.947676 0.875425 0.199478
H25   H     H_    0.791391 0.552171 0.875423 0.199466
H26   H     H_    0.830963 0.436756 0.872691 0.218056
H27   H     H_    0.291695 0.217668 0.162627 0.205678
H28   H     H_    0.396671 0.335268 0.222175 0.220707
H29   H     H_    0.445249 0.244187 0.132688 0.231197
H30   H     H_    0.459939 0.253235 0.313893 0.245059
H31   H     H_    0.279571 0.795569 0.162786 0.205334
H32   H     H_    0.430399 0.763065 0.119486 0.223148
H33   H     H_    0.380048 0.671723 0.205801 0.222468
H34   H     H_    0.831568 0.434072 0.116071 0.229431
H35   H     H_    0.449983 0.747733 0.298706 0.245580
H36   H     H_    0.779109 0.704008 0.162825 0.205308
H37   H     H_    0.879447 0.828027 0.205186 0.222469
H38   H     H_    0.929848 0.736666 0.119029 0.223135
H39   H     H_    0.949596 0.752232 0.298157 0.245624
H40   H     H_    0.792132 0.281936 0.162652 0.205691
H41   H     H_    0.945743 0.255565 0.133178 0.231176
H42   H     H_    0.897207 0.164531 0.222874 0.220718
H43   H     H_    0.960272 0.246775 0.314442 0.245007
H44   H     H_    0.690575 0.809083 0.278945 0.176654
H45   H     H_    0.698639 0.183310 0.279802 0.168551
H46   H     H_    0.198349 0.316444 0.279761 0.168638
H47   H     H_    0.190903 0.690638 0.278955 0.176610
H48   H     H_    0.766528 0.881973 0.728135 0.198414
N1    N     N_R   0.499140 1.000000 0.142800 -0.103977
N2    N     N_R   0.999140 0.500000 0.142800 -0.103975
N3    N     N_R   0.499160 0.000000 0.857150 -0.104558
N4    N     N_R   0.999160 0.500000 0.857150 -0.104544
N5    N     N_2   0.332973 0.213801 0.246522 -0.289619
N6    N     N_2   0.323408 0.795172 0.243764 -0.283798
N7    N     N_2   0.823041 0.704534 0.243679 -0.283799
N8    N     N_2   0.833310 0.285940 0.246646 -0.289605
O1    O     O_R   0.408400 0.908380 0.614690 -0.619819
O2    O     O_R   0.591610 0.908390 0.614650 -0.621850
O3    O     O_R   0.091610 0.591610 0.614650 -0.621843
O4    O     O_R   0.091610 0.408390 0.614650 -0.625737
O5    O     O_R   0.591590 0.091600 0.385310 -0.634286
O6    O     O_R   0.591590 0.908400 0.385310 -0.629668
O7    O     O_R   0.091590 0.591600 0.385310 -0.629665
O8    O     O_R   0.091590 0.408400 0.385310 -0.634304
O9    O     O_R   0.408400 0.091620 0.614690 -0.620351
O10   O     O_R   0.908400 0.408380 0.614690 -0.620382
O11   O     O_R   0.908400 0.591620 0.614690 -0.619808
O12   O     O_R   0.408370 0.908370 0.385350 -0.587552
O13   O     O_R   0.408370 0.091630 0.385350 -0.587006
O14   O     O_R   0.908370 0.408370 0.385350 -0.587021
O15   O     O_R   0.908370 0.591630 0.385350 -0.587531
O16   O     O_R   0.591610 0.091610 0.614650 -0.625737
Zn1   Zn    Zn3+2 0.500010 0.000000 0.653130 0.937188
Zn2   Zn    Zn3+2 0.000010 0.500000 0.653130 0.937183
Zn3   Zn    Zn3+2 0.499980 0.000000 0.346870 0.951883
Zn4   Zn    Zn3+2 0.999980 0.500000 0.346870 0.951885

loop_
_geom_bond_atom_site_label_1
_geom_bond_atom_site_label_2
_ccdc_geom_bond_type
C21   C26   A    
C13   H23   S    
C34   O11   A    
C13   H34   S    
C32   H45   S    
N3    Zn1   S    
O16   Zn1   S    
C44   H48   S    
C16   O3    A    
N1    Zn3   S    
H31   N6    S    
C3    N1    A    
N2    Zn4   S    
C9    H22   S    
H40   N8    S    
O1    Zn1   S    
C46   H6    S    
C49   H28   S    
C38   C42   A    
C35   H47   S    
C18   C42   A    
C47   H7    S    
C20   C40   A    
C48   H8    S    
C20   C25   A    
C52   N8    S    
C12   C22   S    
C52   H41   S    
C50   N6    S    
C14   O16   A    
C23   C26   S    
C2    C13   S    
C3    H18   S    
O15   Zn4   S    
C4    H19   S    
O6    Zn3   S    
C17   O8    A    
C12   O9    A    
C28   C35   A    
C34   O15   A    
C46   C55   S    
C41   C46   S    
H27   N5    S    
C43   C48   S    
N4    Zn2   S    
C50   H32   S    
C25   C34   S    
C17   C38   S    
C19   C53   S    
C18   C22   A    
C46   H2    S    
C1    O1    A    
C7    C56   A    
C8    N4    A    
C19   C43   A    
C48   H4    S    
C23   O10   A    
C45   C47   S    
C25   C29   A    
C48   C53   S    
C33   H46   S    
C49   H29   S    
C36   C40   A    
C4    C6    A    
C16   O7    A    
C21   C55   S    
C6    H21   S    
C39   C43   A    
C12   O13   A    
C16   C39   S    
C28   N6    S    
C31   H44   S    
C4    N2    A    
C10   H26   S    
C27   C33   A    
O12   Zn3   S    
C30   N8    S    
C9    H24   S    
C35   C39   A    
O13   Zn3   S    
C50   H33   S    
O14   Zn4   S    
C14   O5    A    
O7    Zn4   S    
C15   O2    A    
C54   H16   S    
C32   C37   A    
C53   H10   S    
C9    C11   S    
C55   H13   S    
C51   H37   S    
C23   O14   A    
C21   C41   A    
C20   C54   S    
C26   C30   A    
C22   C27   A    
O11   Zn2   S    
C45   H9    S    
O2    Zn1   S    
C7    N3    A    
C53   H15   S    
C18   C45   S    
C15   C36   S    
C11   H12   S    
C49   N5    S    
C5    N3    A    
C7    C9    S    
C51   N7    S    
C10   H25   S    
C45   H14   S    
O8    Zn4   S    
C49   H30   S    
C29   N7    S    
C2    C8    A    
C24   C28   A    
O9    Zn1   S    
C3    C5    A    
C10   C13   S    
H36   N7    S    
C54   H11   S    
C44   H5    S    
C52   H43   S    
C33   C38   A    
C15   O6    A    
C5    H20   S    
C19   C24   A    
C1    O12   A    
C29   C31   A    
C14   C37   S    
C30   C32   A    
C52   H42   S    
C2    N2    A    
C42   C47   S    
C37   C41   A    
O5    Zn3   S    
C56   N1    A    
C51   H38   S    
C47   H3    S    
C55   H17   S    
C44   C54   S    
C50   H35   S    
C40   C44   S    
O4    Zn2   S    
C27   N5    S    
C1    C24   S    
C8    C10   S    
C6    N4    A    
C31   C36   A    
C11   H1    S    
O10   Zn2   S    
C11   C56   S    
C17   O4    A    
C51   H39   S    
O3    Zn2   S    
