data_mof_unit_pretest_908.cif
_audit_creation_date              2012-12-10T18:57:40-0500
_audit_creation_method            fapswitch 2.2
_symmetry_space_group_name_H-M    P1
_symmetry_Int_Tables_number       1
_space_group_crystal_system       triclinic
_cell_length_a                    10.935725
_cell_length_b                    10.820824
_cell_length_c                    9.549587
_cell_angle_alpha                 90.045585
_cell_angle_beta                  92.576153
_cell_angle_gamma                 90.131283
_cell_volume                      1128.89110754

loop_
_atom_site_label
_atom_site_type_symbol
_atom_type_description
_atom_site_fract_x
_atom_site_fract_y
_atom_site_fract_z
_atom_type_partial_charge
C1    C     C_R   0.497824 0.262352 0.499796 0.781271
C2    C     C_R   0.486022 0.129243 0.498967 -0.095109
C3    C     C_R   0.468266 0.064284 0.372066 -0.227026
C4    C     C_R   0.468664 0.935437 0.372122 -0.222634
C5    C     C_R   0.486808 0.870826 0.499076 -0.096257
C6    C     C_R   0.487749 0.936574 0.624865 0.132737
C7    C     C_3   0.575700 0.930913 0.748957 -0.481841
C8    C     C_3   0.574598 0.071186 0.749274 -0.459675
C9    C     C_R   0.557933 0.591963 0.076670 0.257776
C10   C     C_R   0.433474 0.415974 0.070922 -0.080772
C11   C     C_R   0.433623 0.415831 0.922070 -0.074241
C12   C     C_R   0.265948 0.501303 0.496386 0.848918
C13   C     C_R   0.557707 0.592106 0.929318 0.253444
C14   C     C_3   0.690439 0.623628 0.930572 -0.518304
C15   C     C_3   0.690761 0.623466 0.089229 -0.494305
C16   C     C_R   0.498289 0.737688 0.499876 0.790340
C17   C     C_R   0.734932 0.497057 0.503755 0.820605
C18   C     C_2   0.932845 0.424239 0.425069 0.208101
C19   C     C_2   0.867999 0.488213 0.519587 0.048146
C20   C     C_2   0.067397 0.414443 0.442852 -0.198335
C21   C     C_2   0.135433 0.511150 0.484368 -0.341812
C22   C     C_R   0.487162 0.063766 0.624820 0.119443
Cu1   Cu    Cu3+1 0.499990 0.499980 0.640670 0.939091
Cu2   Cu    Cu3+1 0.500010 0.500020 0.359330 0.937831
H1    H     H_    0.663992 0.113006 0.724169 0.196926
H2    H     H_    0.381422 0.346538 0.123997 0.132316
H3    H     H_    0.381776 0.346171 0.863640 0.138054
H4    H     H_    0.746709 0.548238 0.887798 0.245361
H5    H     H_    0.706847 0.716815 0.886738 0.188855
H6    H     H_    0.747853 0.548154 0.136276 0.249069
H7    H     H_    0.707158 0.716385 0.136220 0.191651
H8    H     H_    0.111351 0.327842 0.417225 0.148639
H9    H     H_    0.096258 0.601313 0.499879 0.158444
H10   H     H_    0.459859 0.112340 0.272651 0.160275
H11   H     H_    0.460465 0.887161 0.272722 0.163573
H12   H     H_    0.533653 0.889858 0.842070 0.196394
H13   H     H_    0.665664 0.891364 0.722919 0.187464
H14   H     H_    0.531402 0.111099 0.842248 0.193944
N1    N     N_R   0.500780 0.500930 0.147930 -0.181897
N2    N     N_R   0.500780 0.500890 0.852020 -0.183679
O1    O     O_R   0.500000 0.319640 0.618810 -0.584843
O2    O     O_R   0.500010 0.319680 0.381230 -0.592636
O3    O     O_R   0.321940 0.499980 0.618760 -0.578463
O4    O     O_R   0.321950 0.500020 0.381180 -0.573576
O5    O     O_R   0.499990 0.680320 0.618770 -0.580697
O6    O     O_R   0.500000 0.680360 0.381190 -0.587201
O7    O     O_R   0.678050 0.499980 0.618820 -0.564937
O8    O     O_R   0.678060 0.500020 0.381240 -0.578869
N3    N     N_2   0.870126 0.360075 0.311618 -0.424816
H15   H     H_    0.805854 0.296420 0.341272 0.246978
C23   C     C_3   0.937807 0.324666 0.191173 -0.690595
H16   H     H_    0.872572 0.295878 0.104733 0.225828
H17   H     H_    0.999128 0.245663 0.217894 0.214609
H18   H     H_    0.992019 0.404183 0.153963 0.243086
N4    N     N_2   0.921764 0.530074 0.651171 -0.439575
H19   H     H_    0.999574 0.487301 0.691824 0.269144
C24   C     C_3   0.910700 0.660799 0.681871 -0.715357
H20   H     H_    0.964275 0.717112 0.609518 0.215097
H21   H     H_    0.945194 0.679132 0.791053 0.230504
H22   H     H_    0.813890 0.690960 0.671403 0.233539

loop_
_geom_bond_atom_site_label_1
_geom_bond_atom_site_label_2
_ccdc_geom_bond_type
C16   O5    A    
C2    C22   A    
C8    C22   S    
N4    H19   S    
C23   H16   S    
C15   H7    S    
C6    C7    S    
Cu1   O5    S    
Cu2   O2    S    
C7    H12   S    
C23   H17   S    
C5    C16   S    
Cu1   O1    S    
C17   O8    A    
C11   H3    S    
Cu1   Cu2   S    
C23   H18   S    
Cu2   O6    S    
C10   H2    S    
N3    C23   S    
C2    C3    A    
C7    H13   S    
C4    H11   S    
Cu1   O3    S    
C7    C8    S    
C12   O4    A    
C13   C14   S    
C8    H1    S    
C24   H20   S    
C11   N2    A    
C8    H14   S    
C4    C5    A    
C1    O1    A    
C17   C19   S    
N3    H15   S    
C12   O3    A    
C18   C20   S    
N4    C24   S    
C9    C15   S    
C5    C6    A    
Cu2   O4    S    
C24   H21   S    
Cu1   O7    S    
C10   C11   A    
C14   H5    S    
C19   N4    S    
C3    C4    A    
Cu2   O8    S    
C1    O2    A    
C9    N1    A    
Cu2   N1    S    
C21   H9    S    
C20   C21   D    
C15   H6    S    
C1    C2    S    
C20   H8    S    
C16   O6    A    
Cu1   N2    S    
C9    C13   A    
C14   C15   S    
C18   C19   D    
C13   N2    A    
C3    H10   S    
C14   H4    S    
C12   C21   S    
C17   O7    A    
C18   N3    S    
C10   N1    A    
C24   H22   S    
C6    C22   A    
