data_mof_unit_pretest_540.cif
_audit_creation_date              2012-10-26T19:42:17-0400
_audit_creation_method            fapswitch 2.2
_symmetry_space_group_name_H-M    P1
_symmetry_Int_Tables_number       1
_space_group_crystal_system       triclinic
_cell_length_a                    9.610623
_cell_length_b                    10.776631
_cell_length_c                    17.343295
_cell_angle_alpha                 92.751647
_cell_angle_beta                  86.017139
_cell_angle_gamma                 89.898261
_cell_volume                      1789.81968844

loop_
_atom_site_label
_atom_site_type_symbol
_atom_type_description
_atom_site_fract_x
_atom_site_fract_y
_atom_site_fract_z
_atom_type_partial_charge
C1    C     C_R   0.499563 0.737287 0.502224 0.542791
C2    C     C_R   0.526312 0.509756 0.265864 -0.094611
C3    C     C_R   0.357954 0.881338 0.631561 -0.075309
C4    C     C_R   0.481815 0.498300 0.649718 0.526412
C5    C     C_R   0.290118 0.951506 0.692631 -0.094291
C6    C     C_R   0.290817 0.080613 0.692533 -0.095397
C7    C     C_R   0.359151 0.140363 0.631300 -0.093625
C8    C     C_R   0.427252 0.071165 0.568252 -0.026479
C9    C     C_R   0.426744 0.939935 0.568481 0.016577
C10   C     C_R   0.498691 0.871314 0.506524 -0.045230
C11   C     C_R   0.571722 0.930867 0.446797 -0.071125
C12   C     C_R   0.342857 0.480078 0.775360 -0.152149
C13   C     C_R   0.571213 0.058864 0.446014 0.375722
C14   C     C_R   0.499051 0.129229 0.505785 0.009405
C15   C     C_R   0.869701 0.335543 0.396543 -0.046515
C16   C     C_R   0.499851 0.262832 0.501412 0.570840
C17   C     C_R   0.948412 0.255967 0.345268 0.478931
C18   C     C_R   0.091872 0.255712 0.345421 0.397102
C19   C     C_R   0.157305 0.335331 0.396594 -0.113984
C20   C     C_R   0.081350 0.419034 0.449200 0.055202
C21   C     C_R   0.931918 0.419089 0.449210 0.018266
C22   C     C_R   0.920055 0.577046 0.548467 0.497423
C23   C     C_R   0.407960 0.545519 0.149990 0.419224
C24   C     C_R   0.067878 0.576904 0.548379 0.052450
C25   C     C_R   0.518179 0.501604 0.350187 0.587124
C26   C     C_R   0.472779 0.489510 0.733794 0.009771
C27   C     C_R   0.595583 0.486121 0.772894 -0.100663
C28   C     C_R   0.588774 0.475596 0.852389 -0.144780
C29   C     C_R   0.458925 0.469614 0.894235 0.038548
C30   C     C_R   0.336159 0.469536 0.855250 -0.065061
C31   C     C_R   0.404187 0.535955 0.229542 -0.134915
C32   C     C_R   0.653682 0.495294 0.221063 0.432752
C33   C     C_R   0.657119 0.503842 0.141051 0.400947
C34   C     C_R   0.533941 0.526196 0.105194 0.003695
C35   C     C_2   0.450194 0.464759 0.978706 0.428043
C36   C     C_2   0.539044 0.530127 0.020939 -0.009439
Cu1   Cu    Cu3+1 0.359340 0.500010 0.500010 0.947660
Cu2   Cu    Cu3+1 0.640660 0.499990 0.499990 1.079122
F1    F     F_    0.780103 0.487330 0.098225 -0.529976
F2    F     F_    0.637302 0.114239 0.385208 -0.575230
F3    F     F_    0.845312 0.656392 0.598351 -0.619518
F4    F     F_    0.884488 0.178744 0.294874 -0.468987
F5    F     F_    0.168945 0.177678 0.295617 -0.526619
F6    F     F_    0.774381 0.471736 0.254002 -0.540101
F7    F     F_    0.289332 0.576620 0.117132 -0.511985
F8    F     F_    0.349490 0.393365 0.013325 -0.533070
H1    H     H_    0.697318 0.491130 0.742179 0.168146
H2    H     H_    0.237936 0.905503 0.740599 0.138625
H3    H     H_    0.760614 0.328159 0.392140 0.250663
H4    H     H_    0.305345 0.550755 0.262718 0.203786
H5    H     H_    0.118137 0.639981 0.588030 0.130137
H6    H     H_    0.685244 0.471340 0.880921 0.137922
H7    H     H_    0.357466 0.781389 0.634943 0.129451
H8    H     H_    0.239225 0.134800 0.740434 0.137614
H9    H     H_    0.359382 0.240733 0.634556 0.136168
H10   H     H_    0.267558 0.327182 0.392219 0.220259
H11   H     H_    0.621326 0.584710 0.993132 0.111341
H12   H     H_    0.235221 0.463909 0.886794 0.192033
H13   H     H_    0.246698 0.480896 0.746313 0.135647
H14   H     H_    0.626672 0.877538 0.399488 0.176897
N1    N     N_R   0.852190 0.498790 0.499250 -0.230115
N2    N     N_R   0.148060 0.498710 0.499220 -0.270272
O1    O     O_R   0.381190 0.680360 0.500010 -0.505331
O2    O     O_R   0.618760 0.680340 0.500000 -0.440941
O3    O     O_R   0.367440 0.500030 0.613600 -0.537209
O4    O     O_R   0.605010 0.500010 0.613590 -0.461662
O5    O     O_R   0.381240 0.319660 0.500000 -0.533811
O6    O     O_R   0.618810 0.319640 0.499990 -0.514583
O7    O     O_R   0.394990 0.499990 0.386410 -0.530393
O8    O     O_R   0.632560 0.499970 0.386400 -0.463323

loop_
_geom_bond_atom_site_label_1
_geom_bond_atom_site_label_2
_ccdc_geom_bond_type
C19   H10   S    
C4    C26   S    
Cu2   O8    S    
C29   C30   A    
C3    C9    A    
Cu1   O7    S    
C2    C25   S    
C3    H7    S    
C9    C10   A    
C29   C35   S    
Cu2   O2    S    
C19   C20   A    
C7    H9    S    
C23   C34   A    
C32   C33   A    
Cu2   N1    S    
C24   H5    S    
Cu1   N2    S    
C32   F6    S    
C7    C8    A    
C16   O5    A    
C18   F5    S    
C12   H13   S    
C22   N1    A    
C4    O4    A    
C28   H6    S    
C26   C27   A    
C33   F1    S    
C15   C21   A    
C6    H8    S    
C23   F7    S    
C5    C6    A    
C1    O1    A    
C22   C24   A    
C2    C32   A    
C28   C29   A    
Cu1   O1    S    
Cu1   Cu2   S    
Cu2   O6    S    
C33   C34   A    
C6    C7    A    
C34   C36   S    
C15   H3    S    
C20   N2    A    
C16   O6    A    
C5    H2    S    
C14   C16   S    
C22   F3    S    
C25   O7    A    
C10   C11   A    
C31   H4    S    
C11   H14   S    
C1    O2    A    
Cu1   O5    S    
C11   C13   A    
C20   C21   A    
C36   H11   S    
C17   C18   A    
C18   C19   A    
C17   F4    S    
C27   H1    S    
C27   C28   A    
C15   C17   A    
C4    O3    A    
C8    C9    A    
C13   F2    S    
C24   N2    A    
C25   O8    A    
C8    C14   A    
C13   C14   A    
C12   C30   A    
C30   H12   S    
C35   F8    S    
C21   N1    A    
C1    C10   S    
Cu2   O4    S    
Cu1   O3    S    
C12   C26   A    
C2    C31   A    
C3    C5    A    
C35   C36   D    
C23   C31   A    
