data_mof_unit_pretest_232.cif
_audit_creation_date              2012-12-10T20:39:54-0500
_audit_creation_method            fapswitch 2.2
_symmetry_space_group_name_H-M    P1
_symmetry_Int_Tables_number       1
_space_group_crystal_system       triclinic
_cell_length_a                    23.249872
_cell_length_b                    10.680003
_cell_length_c                    9.869964
_cell_angle_alpha                 90.014038
_cell_angle_beta                  89.13315
_cell_angle_gamma                 90.152339
_cell_volume                      2450.50875707

loop_
_atom_site_label
_atom_site_type_symbol
_atom_type_description
_atom_site_fract_x
_atom_site_fract_y
_atom_site_fract_z
_atom_type_partial_charge
C1    C     C_R   0.501503 0.260254 0.500252 0.906681
C2    C     C_R   0.972357 0.417152 0.281768 -0.198761
C3    C     C_R   0.032237 0.419916 0.276282 0.426007
C4    C     C_R   0.062873 0.499910 0.364953 -0.123343
C5    C     C_R   0.031744 0.580751 0.452995 -0.071132
C6    C     C_R   0.060888 0.662582 0.541063 0.010498
C7    C     C_R   0.029619 0.744393 0.625523 -0.138997
C8    C     C_R   0.969808 0.742306 0.626691 -0.151899
C9    C     C_R   0.123238 0.500324 0.373070 0.554392
C10   C     C_R   0.120738 0.657146 0.546214 0.519277
C11   C     C_R   0.248577 0.652815 0.443646 -0.091022
C12   C     C_R   0.389517 0.500880 0.500697 0.860815
C13   C     C_R   0.307269 0.632414 0.451610 -0.291731
C14   C     C_R   0.327919 0.518233 0.500640 -0.053619
C15   C     C_R   0.289654 0.422864 0.542771 0.132182
C16   C     C_R   0.230658 0.445299 0.535725 -0.123490
C17   C     C_R   0.210316 0.558865 0.484478 0.266801
C18   C     C_R   0.758374 0.591343 0.380157 -0.125385
C19   C     C_R   0.699342 0.574871 0.383928 -0.188506
C20   C     C_R   0.672996 0.515571 0.495120 -0.075732
C21   C     C_R   0.706121 0.472650 0.602801 -0.236976
C22   C     C_R   0.766003 0.486109 0.598788 0.210930
C23   C     C_R   0.502267 0.739891 0.499654 0.911106
C24   C     C_R   0.791911 0.546999 0.486045 0.292027
C25   C     C_R   0.496092 0.063759 0.620684 0.097548
C26   C     C_R   0.509480 0.129162 0.502824 -0.163907
C27   C     C_R   0.533579 0.067051 0.390954 -0.259529
C28   C     C_R   0.534740 0.937230 0.389636 0.387244
C29   C     C_R   0.509659 0.871810 0.500455 -0.215180
C30   C     C_R   0.494475 0.936496 0.618261 0.037291
C31   C     C_3   0.441968 0.931091 0.709351 -0.017321
C32   C     C_3   0.444841 0.073637 0.712925 -0.473276
C33   C     C_R   0.472888 0.591260 0.072881 0.260298
C34   C     C_R   0.610756 0.502090 0.498873 0.891562
C35   C     C_R   0.532259 0.415056 0.070743 -0.116536
C36   C     C_R   0.532745 0.415971 0.926648 -0.128462
C37   C     C_R   0.470174 0.587018 0.931224 0.211245
C38   C     C_3   0.406512 0.616846 0.937420 -0.130790
C39   C     C_3   0.411972 0.629815 0.090559 -0.533346
C40   C     C_R   0.880265 0.648384 0.549951 0.495742
C41   C     C_R   0.881866 0.485563 0.383871 0.523701
C42   C     C_R   0.941698 0.493450 0.372436 -0.087348
C43   C     C_R   0.971217 0.577873 0.455829 -0.013377
C44   C     C_R   0.940243 0.657631 0.544272 0.003815
H1    H     H_    0.949836 0.353414 0.215433 0.221311
H2    H     H_    0.674202 0.610068 0.300670 0.195295
H3    H     H_    0.685428 0.425965 0.688084 0.157461
H4    H     H_    0.549344 0.118620 0.303341 0.192484
H5    H     H_    0.451345 0.887519 0.808874 0.165074
H6    H     H_    0.408588 0.122416 0.664196 0.203356
H7    H     H_    0.456391 0.111251 0.813988 0.190626
H8    H     H_    0.557290 0.346112 0.124108 0.152768
H9    H     H_    0.558335 0.348084 0.871329 0.155355
H10   H     H_    0.397198 0.708048 0.889238 0.144823
H11   H     H_    0.408453 0.728260 0.126312 0.189656
H12   H     H_    0.386025 0.562059 0.151206 0.238103
H13   H     H_    0.051240 0.808661 0.692843 0.197480
H14   H     H_    0.946903 0.805040 0.694652 0.196100
H15   H     H_    0.232793 0.740140 0.402910 0.158077
H16   H     H_    0.336763 0.705032 0.417571 0.147430
H17   H     H_    0.200164 0.372838 0.564733 0.150808
H18   H     H_    0.778446 0.637535 0.293877 0.160634
N1    N     N_R   0.852821 0.560061 0.474183 -0.351347
N2    N     N_R   0.150102 0.574578 0.465800 -0.360342
N3    N     N_R   0.499610 0.499140 0.142800 -0.108219
N4    N     N_R   0.499610 0.499180 0.857150 -0.111623
O1    O     O_R   0.500010 0.316790 0.614690 -0.623347
O2    O     O_2   0.852824 0.402663 0.307271 -0.553185
O3    O     O_2   0.155406 0.426413 0.291383 -0.480459
O4    O     O_2   0.149421 0.731056 0.633401 -0.558901
O5    O     O_R   0.500000 0.316760 0.385350 -0.629378
O6    O     O_R   0.416160 0.499980 0.614700 -0.633621
O7    O     O_R   0.416150 0.499940 0.385360 -0.621836
O8    O     O_R   0.500000 0.683240 0.614650 -0.626741
O9    O     O_R   0.499990 0.683210 0.385310 -0.565907
O10   O     O_R   0.583850 0.500060 0.614640 -0.615668
O11   O     O_R   0.583840 0.500020 0.385300 -0.606346
O12   O     O_2   0.849542 0.725628 0.631364 -0.558058
Zn1   Zn    Zn3+2 0.500000 0.500020 0.653130 0.944037
Zn2   Zn    Zn3+2 0.500000 0.499980 0.346870 0.975058
C45   C     C_3   0.800889 0.431755 0.712731 -0.428835
C46   C     C_3   0.825838 0.304504 0.673871 -0.783437
H19   H     H_    0.790848 0.238995 0.645354 0.269400
H20   H     H_    0.856797 0.313649 0.587893 0.270639
H21   H     H_    0.848894 0.264621 0.761535 0.260406
H22   H     H_    0.836046 0.496241 0.741767 0.237457
H23   H     H_    0.773367 0.419362 0.804906 0.216703
Cl1   Cl    Cl    0.566043 0.863724 0.246393 -0.626347
C47   C     C_3   0.387981 0.878007 0.640570 -0.408511
C48   C     C_3   0.333042 0.905789 0.721932 -0.824285
H24   H     H_    0.336806 0.872618 0.827906 0.253062
H25   H     H_    0.323986 0.007742 0.722984 0.261476
H26   H     H_    0.296158 0.857084 0.674657 0.272516
H27   H     H_    0.383768 0.916735 0.536630 0.208863
H28   H     H_    0.392427 0.774869 0.631853 0.212025
Cl2   Cl    Cl    0.064968 0.318040 0.157352 -0.521116
C49   C     C_3   0.361682 0.515130 0.900035 -0.294213
C50   C     C_3   0.379863 0.379289 0.924429 -0.825496
H29   H     H_    0.412940 0.349906 0.849005 0.268609
H30   H     H_    0.396525 0.366689 0.028268 0.258792
H31   H     H_    0.342016 0.316823 0.912646 0.236436
H32   H     H_    0.321750 0.532842 0.960374 0.215191
H33   H     H_    0.348658 0.526963 0.793746 0.220557
C51   C     C_3   0.310195 0.294447 0.583829 -0.461732
C52   C     C_3   0.325014 0.215678 0.458990 -0.828203
H34   H     H_    0.287671 0.211135 0.390229 0.287011
H35   H     H_    0.362558 0.255958 0.403328 0.257429
H36   H     H_    0.335815 0.118975 0.490188 0.242313
H37   H     H_    0.348219 0.302346 0.649614 0.211819
H38   H     H_    0.276293 0.244963 0.643938 0.221013

loop_
_geom_bond_atom_site_label_1
_geom_bond_atom_site_label_2
_ccdc_geom_bond_type
C27   H4    S    
C9    N2    A    
C41   C42   A    
C19   C20   A    
O10   Zn1   S    
C45   C46   S    
C19   H2    S    
C33   N3    A    
C7    C8    A    
C13   H16   S    
N4    Zn1   S    
C52   H35   S    
C26   C27   A    
C1    O5    A    
C40   N1    A    
C18   C24   A    
C5    C6    A    
C23   C29   S    
C28   C29   A    
C9    O3    S    
O6    Zn1   S    
C17   N2    S    
C30   C31   S    
C36   N4    A    
C35   N3    A    
C15   C16   A    
C18   C19   A    
C47   H27   S    
O5    Zn2   S    
C36   H9    S    
C8    H14   S    
C33   C39   S    
C39   H11   S    
C31   C32   S    
C16   C17   A    
C31   C47   S    
C28   Cl1   S    
C3    Cl2   S    
C13   C14   A    
C15   C51   S    
C29   C30   A    
O9    Zn2   S    
C49   H32   S    
C20   C34   S    
C25   C32   S    
C12   O6    A    
N3    Zn2   S    
C21   C22   A    
C31   H5    S    
C38   C49   S    
C11   H15   S    
C51   C52   S    
C49   C50   S    
C41   O2    S    
C2    H1    S    
C38   C39   S    
C52   H36   S    
C22   C45   S    
O1    Zn1   S    
C18   H18   S    
C25   C26   A    
C33   C37   A    
C35   C36   A    
C47   H28   S    
C43   C44   A    
C32   H7    S    
C37   C38   S    
C48   H25   S    
C39   H12   S    
C38   H10   S    
C37   N4    A    
C45   H22   S    
C49   H33   S    
C32   H6    S    
C45   H23   S    
C10   O4    S    
C12   C14   S    
C46   H19   S    
C24   N1    S    
C50   H30   S    
O8    Zn1   S    
C1    C26   S    
C22   C24   A    
C16   H17   S    
C41   N1    A    
C23   O8    A    
C3    C4    A    
C46   H21   S    
C35   H8    S    
C48   H26   S    
O11   Zn2   S    
C25   C30   A    
C11   C17   A    
C10   N2    A    
C8    C44   A    
C23   O9    A    
C4    C5    A    
C6    C10   A    
C6    C7    A    
C50   H31   S    
C52   H34   S    
C46   H20   S    
C2    C3    A    
C4    C9    A    
C34   O11   A    
C51   H38   S    
C11   C13   A    
C48   H24   S    
C51   H37   S    
C2    C42   A    
C1    O1    A    
O7    Zn2   S    
C40   O12   S    
C5    C43   A    
C40   C44   A    
C20   C21   A    
C50   H29   S    
C42   C43   A    
C27   C28   A    
C14   C15   A    
C47   C48   S    
C12   O7    A    
C7    H13   S    
C34   O10   A    
C21   H3    S    
