data_mof_unit_pretest_1272.cif
_audit_creation_date              2013-03-05T16:47:43-0500
_audit_creation_method            fapswitch 2.2
_symmetry_space_group_name_H-M    P1
_symmetry_Int_Tables_number       1
_space_group_crystal_system       triclinic
_cell_length_a                    10.876042
_cell_length_b                    12.995156
_cell_length_c                    11.632858
_cell_angle_alpha                 99.850182
_cell_angle_beta                  94.716125
_cell_angle_gamma                 90.791457
_cell_volume                      1613.76749469

loop_
_atom_site_label
_atom_site_type_symbol
_atom_site_description
_atom_site_fract_x
_atom_site_fract_y
_atom_site_fract_z
_atom_type_partial_charge
O1    O     O_R   0.506570 0.354460 0.582000 -0.592666
O2    O     O_R   0.493430 0.645540 0.418000 -0.586549
O3    O     O_R   0.490940 0.341410 0.386200 -0.622433
O4    O     O_R   0.509060 0.658590 0.613800 -0.619117
C1    C     C_R   0.499210 0.298963 0.478560 0.804821
C2    C     C_R   0.502514 0.701060 0.521407 0.819950
O5    O     O_R   0.327460 0.506540 0.597900 -0.539058
O6    O     O_R   0.672540 0.493460 0.402100 -0.556240
O7    O     O_R   0.311830 0.493480 0.402100 -0.589624
O8    O     O_R   0.688170 0.506520 0.597900 -0.582815
C3    C     C_R   0.261442 0.504120 0.499818 0.853950
C4    C     C_R   0.737170 0.490132 0.499598 0.833425
Cu1   Cu    Cu3+1 0.509250 0.507730 0.615930 0.955340
Cu2   Cu    Cu3+1 0.490750 0.492270 0.384070 0.954028
H1    H     H_    0.198201 0.540718 0.975749 0.175295
H2    H     H_    0.790431 0.404075 0.008606 0.172208
C5    C     C_R   0.162200 0.616284 0.148734 -0.222567
C6    C     C_R   0.833157 0.339021 0.834028 -0.228170
H3    H     H_    0.184782 0.693251 0.131351 0.164938
H4    H     H_    0.813607 0.259710 0.845664 0.169492
C7    C     C_R   0.123355 0.603825 0.258127 0.379346
C8    C     C_R   0.874365 0.358995 0.728175 0.373138
C9    C     C_R   0.095088 0.501652 0.278406 0.104660
C10   C     C_R   0.899326 0.463961 0.715547 0.102986
C11   C     C_R   0.107052 0.415799 0.189038 -0.153176
C12   C     C_R   0.879749 0.545196 0.808190 -0.170753
H5    H     H_    0.091710 0.337353 0.204426 0.129781
H6    H     H_    0.890811 0.625904 0.798236 0.116387
C13   C     C_R   0.140539 0.430262 0.079623 -0.133731
C14   C     C_R   0.844577 0.523271 0.914296 -0.113800
H7    H     H_    0.147292 0.363489 0.010903 0.149140
H8    H     H_    0.833769 0.586414 0.986205 0.152174
C15   C     C_R   0.169110 0.530200 0.059788 -0.157807
C16   C     C_R   0.820274 0.420507 0.926939 -0.159786
C17   C     C_R   0.925258 0.458293 0.391703 0.463384
C18   C     C_R   0.071745 0.511502 0.606091 0.458344
C19   C     C_R   0.870624 0.475916 0.499425 -0.237107
C20   C     C_R   0.126093 0.503179 0.498698 -0.206932
C21   C     C_R   0.945701 0.489166 0.606147 -0.099828
C22   C     C_R   0.050522 0.483657 0.391318 -0.083039
C23   C     C_R   0.505614 0.814436 0.533753 -0.035116
C24   C     C_R   0.499943 0.185637 0.466036 -0.033600
C25   C     C_R   0.486590 0.014920 0.343304 -0.183302
C26   C     C_R   0.523027 0.985180 0.656339 -0.178419
C27   C     C_R   0.488079 0.123088 0.354448 -0.206504
C28   C     C_R   0.520761 0.877012 0.645190 -0.198894
C29   C     C_R   0.512213 0.139487 0.566479 -0.185743
C30   C     C_R   0.494417 0.860593 0.433266 -0.188953
C31   C     C_R   0.511050 0.031430 0.556065 0.180287
C32   C     C_R   0.497365 0.968664 0.443616 0.173595
H9    H     H_    0.483184 0.812666 0.346865 0.149925
H10   H     H_    0.522390 0.187414 0.652913 0.145064
H11   H     H_    0.531158 0.842430 0.723635 0.146423
H12   H     H_    0.479336 0.157616 0.275862 0.147546
H13   H     H_    0.476670 0.967598 0.256614 0.136194
H14   H     H_    0.534177 0.032499 0.743003 0.131669
N1    N     N_R   0.523180 0.519350 0.790130 -0.182589
N2    N     N_R   0.476820 0.480650 0.209870 -0.183277
C33   C     C_R   0.427033 0.375734 0.019131 -0.349130
C34   C     C_R   0.573982 0.623933 0.980883 -0.353835
C35   C     C_R   0.428511 0.390816 0.141778 0.076617
C36   C     C_R   0.572895 0.608676 0.858258 0.064769
C37   C     C_R   0.525507 0.557575 0.158516 0.054915
C38   C     C_R   0.474301 0.442520 0.841471 0.056768
C39   C     C_R   0.525089 0.546080 0.035242 0.063681
C40   C     C_R   0.475219 0.453849 0.964750 0.060196
H15   H     H_    0.432764 0.373001 0.786770 0.128047
H16   H     H_    0.566707 0.627234 0.213209 0.126123
H17   H     H_    0.611384 0.669308 0.817820 0.130100
H18   H     H_    0.390639 0.329896 0.182173 0.127556
H19   H     H_    0.387936 0.303701 0.967402 0.138573
H20   H     H_    0.613470 0.695817 0.032617 0.141600
N3    N     N_R   0.113447 0.694929 0.346415 0.098077
O9    O     O_R   0.184650 0.776777 0.349080 -0.376562
O10   O     O_R   0.025501 0.701141 0.416451 -0.386121
N4    N     N_R   0.890003 0.272395 0.635657 0.094694
O11   O     O_R   0.821863 0.187709 0.625822 -0.378751
O12   O     O_R   0.980315 0.272764 0.568981 -0.386584
O13   O     O_3   0.856452 0.427437 0.284454 -0.609175
C41   C     C_3   0.795351 0.328706 0.278137 0.103427
H21   H     H_    0.701304 0.333749 0.234542 0.182141
H22   H     H_    0.783095 0.305805 0.364694 0.144817
C42   C     C_3   0.862310 0.241673 0.204681 -0.390771
H23   H     H_    0.883017 0.265636 0.120916 0.222012
H24   H     H_    0.949975 0.226601 0.254246 0.232077
C43   C     C_3   0.784110 0.140578 0.177699 -0.878371
H25   H     H_    0.762699 0.114611 0.260224 0.279994
H26   H     H_    0.835700 0.078420 0.125814 0.261110
H27   H     H_    0.696443 0.152279 0.125990 0.238805
O14   O     O_3   0.142741 0.538278 0.712096 -0.594768
C44   C     C_3   0.132325 0.646449 0.756481 0.018702
H28   H     H_    0.105587 0.653808 0.847532 0.155834
H29   H     H_    0.061102 0.686824 0.706750 0.146206
C45   C     C_3   0.256346 0.704110 0.760644 -0.281611
H30   H     H_    0.328927 0.662120 0.805137 0.238752
H31   H     H_    0.279576 0.706549 0.669973 0.232406
C46   C     C_3   0.252447 0.815853 0.827004 -0.924859
H32   H     H_    0.182178 0.860363 0.782661 0.277980
H33   H     H_    0.343899 0.855476 0.829713 0.252113
H34   H     H_    0.229964 0.815781 0.918456 0.250547

loop_
_geom_bond_atom_site_label_1
_geom_bond_atom_site_label_2
_geom_bond_distance
_ccdc_geom_bond_type
C26   C31   1.398546 A    
C35   H18   1.080423 S    
C20   C22   1.420298 A    
C1    C24   1.455061 S    
C37   C39   1.415769 A    
C7    N3    1.440068 S    
N3    O9    1.301534 A    
C8    N4    1.440385 S    
C46   H32   1.110952 S    
N1    C36   1.365777 A    
C29   C31   1.388418 A    
O5    C3    1.292571 A    
O1    C1    1.288452 A    
C17   C19   1.415572 A    
C10   C12   1.405664 A    
C33   C40   1.401735 A    
C43   H26   1.110398 S    
Cu1   N1    1.999105 S    
C34   H20   1.083199 S    
C9    C22   1.490483 S    
C13   C15   1.392693 A    
O4    Cu1   1.964868 S    
C10   C21   1.491592 S    
C34   C36   1.405242 A    
C4    C19   1.465815 S    
H2    C16   1.082444 S    
C30   H9    1.084691 S    
C2    C23   1.455310 S    
C23   C28   1.403342 A    
N2    C35   1.365484 A    
C30   C32   1.388575 A    
Cu1   Cu2   2.660816 S    
N3    O10   1.301133 A    
O2    C2    1.287964 A    
C5    C15   1.395269 A    
C41   C42   1.527775 S    
C46   H33   1.109314 S    
C26   C28   1.389046 A    
C6    C16   1.395173 A    
C11   C13   1.394349 A    
Cu2   N2    1.999104 S    
C33   C35   1.405246 A    
C14   C16   1.392382 A    
C38   H15   1.081636 S    
N4    O11   1.301496 A    
C41   H22   1.115213 S    
C44   H28   1.110112 S    
C43   H25   1.111377 S    
C45   C46   1.526406 S    
C43   H27   1.111323 S    
C5    C7    1.407515 A    
C36   H17   1.080467 S    
C24   C27   1.403896 A    
C38   C40   1.415533 A    
C3    C20   1.470914 S    
O7    Cu2   1.974273 S    
C44   H29   1.118654 S    
O7    C3    1.289328 A    
C26   H14   1.083933 S    
C42   H23   1.111380 S    
O6    C4    1.291846 A    
C45   H31   1.110136 S    
C25   C27   1.389108 A    
O3    Cu2   1.964867 S    
O8    C4    1.287262 A    
O4    C2    1.286979 A    
C42   H24   1.110531 S    
C27   H12   1.083202 S    
C12   C14   1.394989 A    
C7    C9    1.421580 A    
C8    C10   1.421560 A    
O1    Cu1   1.962472 S    
C39   C40   1.405621 A    
C46   H34   1.111159 S    
N1    C38   1.370295 A    
C18   O14   1.388207 S    
N2    C37   1.370507 A    
C37   H16   1.081618 S    
O6    Cu2   1.970591 S    
C6    C8    1.407624 A    
C18   C21   1.397401 A    
N4    O12   1.301090 A    
C41   H21   1.111602 S    
O3    C1    1.286464 A    
O8    Cu1   1.974273 S    
C34   C39   1.401968 A    
C25   C32   1.398648 A    
C29   H10   1.084743 S    
C25   H13   1.083919 S    
C11   H5    1.077842 S    
C12   H6    1.080861 S    
C18   C20   1.413777 A    
C17   C22   1.397799 A    
C13   H7    1.082349 S    
C44   C45   1.527135 S    
C14   H8    1.082063 S    
O14   C44   1.421654 S    
C28   H11   1.082701 S    
C17   O13   1.394397 S    
C5    H3    1.082678 S    
C23   C30   1.399848 A    
C6    H4    1.082683 S    
C24   C29   1.399661 A    
C9    C11   1.404235 A    
C45   H30   1.109117 S    
O2    Cu2   1.962474 S    
O13   C41   1.424544 S    
O5    Cu1   1.970591 S    
C42   C43   1.527069 S    
C19   C21   1.412073 A    
C31   C32   1.413563 A    
H1    C15   1.081622 S    
C33   H19   1.083211 S    
