data_mof_unit_pretest_451.cif
_audit_creation_date              2012-12-11T17:14:11-0500
_audit_creation_method            fapswitch 2.2
_symmetry_space_group_name_H-M    P1
_symmetry_Int_Tables_number       1
_space_group_crystal_system       triclinic
_cell_length_a                    18.365306
_cell_length_b                    7.076968
_cell_length_c                    13.417291
_cell_angle_alpha                 90.000395
_cell_angle_beta                  69.769784
_cell_angle_gamma                 89.999899
_cell_volume                      1636.27747357

loop_
_atom_site_label
_atom_site_type_symbol
_atom_type_description
_atom_site_fract_x
_atom_site_fract_y
_atom_site_fract_z
_atom_type_partial_charge
O1    O     O_R   0.453880 0.506200 0.150010 -0.540060
O2    O     O_R   0.546120 0.006200 0.849990 -0.540043
O3    O     O_R   0.604080 0.177770 0.007280 -0.546852
O4    O     O_R   0.395920 0.677770 0.992720 -0.546849
C1    C     C_R   0.636069 0.344734 0.001793 0.728980
C2    C     C_R   0.363931 0.844734 0.998207 0.728974
O5    O     O_R   0.458010 0.176640 0.159130 -0.545873
O6    O     O_R   0.541990 0.676640 0.840870 -0.545856
O7    O     O_R   0.399010 0.004010 0.002930 -0.534329
O8    O     O_R   0.600990 0.504010 0.997070 -0.534323
C3    C     C_R   0.440908 0.344596 0.200423 0.689349
C4    C     C_R   0.559083 0.844597 0.799569 0.689325
O9    O     O_3   0.480810 0.338440 0.948570 -0.381874
O10   O     O_3   0.519190 0.838440 0.051430 -0.381878
V1    V     V_3+5 0.503560 0.064490 0.009540 1.380054
V2    V     V_3+5 0.496440 0.564490 0.990460 1.380063
C5    C     C_R   0.588878 0.767694 0.515484 -0.171802
C6    C     C_R   0.411116 0.267724 0.484509 -0.171811
H1    H     H_    0.489987 0.795235 0.656586 0.098628
H2    H     H_    0.510005 0.295245 0.343403 0.098617
C7    C     C_R   0.596541 0.846407 0.685219 -0.019108
C8    C     C_R   0.403449 0.346411 0.314773 -0.019095
C9    C     C_R   0.958771 0.909691 0.377196 -0.171873
C10   C     C_R   0.041219 0.409652 0.622807 -0.171885
C11   C     C_R   0.927278 0.918669 0.487392 -0.123695
C12   C     C_R   0.072709 0.418617 0.512610 -0.123698
C13   C     C_R   0.848350 0.885343 0.539880 -0.154728
C14   C     C_R   0.151639 0.385310 0.460120 -0.154731
C15   C     C_R   0.798788 0.839006 0.482617 0.073062
C16   C     C_R   0.201204 0.339002 0.517381 0.073064
C17   C     C_R   0.832870 0.817174 0.370653 0.045286
C18   C     C_R   0.167124 0.317182 0.629345 0.045291
C19   C     C_R   0.716444 0.821391 0.531679 0.042882
C20   C     C_R   0.283548 0.321399 0.468316 0.042889
C21   C     C_R   0.670533 0.775972 0.468154 0.117090
C22   C     C_R   0.329462 0.275996 0.531840 0.117084
C23   C     C_R   0.706660 0.746734 0.358001 0.065293
C24   C     C_R   0.293336 0.246763 0.641994 0.065295
C25   C     C_R   0.786531 0.765047 0.311602 -0.233400
C26   C     C_R   0.213466 0.265072 0.688395 -0.233392
C27   C     C_R   0.677470 0.854817 0.641229 -0.204607
C28   C     C_R   0.322520 0.354821 0.358766 -0.204628
C29   C     C_R   0.552610 0.804360 0.622337 -0.192054
C30   C     C_R   0.447382 0.304375 0.377654 -0.192031
C31   C     C_R   0.912295 0.859010 0.318156 -0.062971
C32   C     C_R   0.087699 0.359004 0.681844 -0.062964
H3    H     H_    0.708035 0.884212 0.695084 0.095034
H4    H     H_    0.291953 0.384213 0.304913 0.095030
H5    H     H_    0.828061 0.898603 0.625050 0.107118
H6    H     H_    0.171926 0.398557 0.374950 0.107120
H7    H     H_    0.811440 0.750717 0.226245 0.132333
H8    H     H_    0.188558 0.250746 0.773752 0.132333
C33   C     C_1   0.216511 0.858561 0.999898 -0.191567
C34   C     C_1   0.783488 0.358562 0.000102 -0.191564
C35   C     C_1   0.283631 0.852877 0.998803 -0.196566
C36   C     C_1   0.716369 0.352877 0.001197 -0.196573
O11   O     O_R   0.899030 0.205490 0.002790 -0.535118
O12   O     O_R   0.100970 0.705490 0.997210 -0.535118
O13   O     O_R   0.042000 0.536370 0.840840 -0.540162
O14   O     O_R   0.958000 0.036370 0.159160 -0.540163
C37   C     C_R   0.054156 0.367523 0.798481 0.677691
C38   C     C_R   0.945839 0.867525 0.201520 0.677693
O15   O     O_R   0.895930 0.535070 0.992690 -0.543163
O16   O     O_R   0.104070 0.035070 0.007310 -0.543160
O17   O     O_R   0.953870 0.707520 0.150040 -0.543646
O18   O     O_R   0.046130 0.207520 0.849960 -0.543646
C39   C     C_R   0.863931 0.366586 0.998987 0.718298
C40   C     C_R   0.136069 0.866586 0.001012 0.718304
O19   O     O_3   0.019200 0.374340 0.051340 -0.375116
O20   O     O_3   0.980800 0.874340 0.948660 -0.375117
V3    V     V_3+5 0.996440 0.648350 0.990470 1.426690
V4    V     V_3+5 0.003560 0.148350 0.009530 1.426691
C41   C     C_3   0.661481 0.741492 0.283598 -0.352756
C42   C     C_3   0.636652 0.944296 0.272731 -0.406830
C43   C     C_3   0.589715 0.952325 0.201108 -0.599026
H9    H     H_    0.624932 0.896538 0.121700 0.236010
H10   H     H_    0.535232 0.869992 0.235710 0.225744
H11   H     H_    0.575585 0.102135 0.194329 0.205704
H12   H     H_    0.601191 0.004146 0.351068 0.203527
H13   H     H_    0.688941 0.034987 0.238565 0.204108
H14   H     H_    0.697939 0.688080 0.203885 0.170824
H15   H     H_    0.611527 0.642871 0.311400 0.159878
C44   C     C_3   0.338515 0.241525 0.716395 -0.352753
C45   C     C_3   0.363334 0.444332 0.727274 -0.406874
C46   C     C_3   0.410298 0.452358 0.798856 -0.599156
H16   H     H_    0.375108 0.396518 0.878255 0.236059
H17   H     H_    0.464784 0.370076 0.764211 0.225741
H18   H     H_    0.424414 0.602167 0.805660 0.205708
H19   H     H_    0.398768 0.504216 0.648940 0.203556
H20   H     H_    0.311044 0.534991 0.761477 0.204128
H21   H     H_    0.302061 0.188096 0.796105 0.170819
H22   H     H_    0.388473 0.142917 0.688587 0.159889
H23   H     H_    0.551420 0.733417 0.471361 0.126755
H24   H     H_    0.448576 0.233460 0.528631 0.126758
H25   H     H_    0.019595 0.942813 0.337685 0.107363
H26   H     H_    0.980394 0.442756 0.662319 0.107360
H27   H     H_    0.963977 0.956073 0.532498 0.129497
H28   H     H_    0.036008 0.455994 0.467505 0.129499

loop_
_geom_bond_atom_site_label_1
_geom_bond_atom_site_label_2
_ccdc_geom_bond_type
C25   H7    S    
C9    C31   A    
C24   C44   S    
C13   C15   A    
C41   C42   S    
C1    C36   S    
O1    C3    A    
C2    C35   S    
O2    C4    A    
C2    O7    A    
C46   H16   S    
O5    C3    A    
C44   H22   S    
O16   C40   A    
C21   C23   A    
C10   C12   A    
C10   H26   S    
O12   V3    S    
O14   V4    S    
C15   C19   A    
C31   C38   S    
O14   C38   A    
O19   V3    S    
C33   C40   S    
C7    C29   A    
C14   H6    S    
C37   O18   A    
C8    C30   A    
O18   V4    S    
C20   C28   A    
O20   V3    S    
C16   C18   A    
O5    V1    S    
O6    V2    S    
C42   H13   S    
C45   H20   S    
O11   C39   A    
C41   H14   S    
H2    C30   S    
H1    C29   S    
C34   C36   T    
C46   H17   S    
O15   C39   A    
O13   C37   A    
C42   C43   S    
C16   C20   A    
C32   C37   S    
C45   C46   S    
O4    C2    A    
C34   C39   S    
C26   H8    S    
C4    C7    S    
O4    V2    S    
O19   V4    S    
C43   H9    S    
C5    C29   A    
C6    C30   A    
C44   C45   S    
O6    C4    A    
C27   H3    S    
O1    V2    S    
C28   H4    S    
O2    V1    S    
C43   H10   S    
C12   H28   S    
C7    C27   A    
C11   H27   S    
O15   V3    S    
C42   H12   S    
C6    H24   S    
C5    H23   S    
C45   H19   S    
C33   C35   T    
C41   H15   S    
C18   C26   A    
O3    V1    S    
C46   H18   S    
O12   C40   A    
C23   C41   S    
C38   O17   A    
C18   C32   A    
O3    C1    A    
C11   C13   A    
C44   H21   S    
C3    C8    S    
C12   C14   A    
C19   C27   A    
C22   C24   A    
O7    V1    S    
C10   C32   A    
C1    O8    A    
C23   C25   A    
O8    V2    S    
C24   C26   A    
C8    C28   A    
C14   C16   A    
C19   C21   A    
C9    H25   S    
C20   C22   A    
O16   V4    S    
O11   V4    S    
C43   H11   S    
O17   V3    S    
C9    C11   A    
C15   C17   A    
C17   C31   A    
O9    V2    S    
C17   C25   A    
O10   V1    S    
O20   V4    S    
C5    C21   A    
C6    C22   A    
C13   H5    S    
O13   V3    S    
