data_mof_unit_pretest_975.cif
_audit_creation_date              2012-12-10T20:31:59-0500
_audit_creation_method            fapswitch 2.2
_symmetry_space_group_name_H-M    P1
_symmetry_Int_Tables_number       1
_space_group_crystal_system       triclinic
_cell_length_a                    9.855701
_cell_length_b                    10.723825
_cell_length_c                    15.569813
_cell_angle_alpha                 90.192345
_cell_angle_beta                  67.227152
_cell_angle_gamma                 90.364419
_cell_volume                      1517.27589271

loop_
_atom_site_label
_atom_site_type_symbol
_atom_type_description
_atom_site_fract_x
_atom_site_fract_y
_atom_site_fract_z
_atom_type_partial_charge
C1    C     C_R   0.505310 0.739584 0.492770 0.877737
C2    C     C_R   0.738859 0.510669 0.029613 0.177876
C3    C     C_R   0.595925 0.465657 0.084336 0.094626
C4    C     C_R   0.407012 0.495278 0.676410 0.874234
C5    C     C_R   0.839336 0.538215 0.071090 -0.212818
C6    C     C_R   0.795500 0.529883 0.167498 -0.209092
C7    C     C_R   0.554867 0.458794 0.180553 -0.265929
C8    C     C_R   0.380656 0.934331 0.505380 0.107757
C9    C     C_R   0.513756 0.872017 0.482680 -0.164850
C10   C     C_R   0.648909 0.938905 0.457133 0.076615
C11   C     C_R   0.640792 0.067773 0.467039 -0.229335
C12   C     C_R   0.421275 0.459502 0.910242 0.095935
C13   C     C_R   0.505831 0.128432 0.491468 -0.144918
C14   C     C_R   0.377037 0.061959 0.508537 0.129649
C15   C     C_3   0.278595 0.069521 0.455937 -0.482047
C16   C     C_R   0.501497 0.260248 0.497231 0.876606
C17   C     C_3   0.281665 0.929113 0.452758 -0.465162
C18   C     C_R   0.912398 0.603268 0.528154 0.205006
C19   C     C_R   0.949873 0.403103 0.463267 -0.135041
C20   C     C_R   0.094012 0.403281 0.463025 -0.153035
C21   C     C_R   0.054698 0.602998 0.528625 0.221969
C22   C     C_3   0.002796 0.661681 0.622741 -0.516855
C23   C     C_R   0.286168 0.399443 0.961700 0.144938
C24   C     C_3   0.849503 0.662671 0.621843 -0.515816
C25   C     C_R   0.592305 0.498860 0.323930 0.856914
C26   C     C_R   0.347981 0.474343 0.777906 -0.099596
C27   C     C_R   0.651018 0.494160 0.222412 -0.057933
C28   C     C_R   0.183125 0.377979 0.921821 -0.248415
C29   C     C_R   0.214063 0.410206 0.828947 0.089440
C30   C     C_R   0.442975 0.505314 0.822018 -0.288371
C31   C     C_3   0.798364 0.874223 0.416164 -0.361898
C32   C     C_3   0.931827 0.957854 0.362789 -0.399687
C33   C     C_3   0.068490 0.879570 0.311667 -0.872426
C34   C     C_R   0.530359 0.471815 0.948438 0.078692
C35   C     C_3   0.106264 0.365853 0.787583 -0.421847
C36   C     C_3   0.154837 0.241440 0.736679 -0.299295
C37   C     C_3   0.045251 0.195891 0.696009 -0.872048
C38   C     C_R   0.494396 0.437792 0.042568 0.067377
C39   C     C_R   0.358421 0.376811 0.091749 -0.232140
C40   C     C_R   0.256676 0.357874 0.051648 -0.232242
C41   C     C_R   0.675512 0.512927 0.894936 -0.227423
C42   C     C_R   0.778014 0.530974 0.934877 -0.265955
H1    H     H_    0.154409 0.309851 0.091299 0.147460
H2    H     H_    0.012327 0.599034 0.676601 0.201959
H3    H     H_    0.444294 0.433523 0.225402 0.157078
H4    H     H_    0.049237 0.756525 0.621478 0.198178
H5    H     H_    0.771346 0.600005 0.674272 0.211749
H6    H     H_    0.807751 0.758133 0.619938 0.195462
H7    H     H_    0.871841 0.556346 0.199162 0.156577
H8    H     H_    0.887234 0.564441 0.891801 0.148257
H9    H     H_    0.081300 0.329451 0.961823 0.144273
H10   H     H_    0.536323 0.563771 0.784831 0.150195
H11   H     H_    0.329332 0.337871 0.160338 0.141102
H12   H     H_    0.949672 0.570600 0.029414 0.148821
H13   H     H_    0.714773 0.528351 0.821146 0.145831
H14   H     H_    0.091284 0.817068 0.361188 0.258423
H15   H     H_    0.164967 0.941903 0.278204 0.252962
H16   H     H_    0.052473 0.822075 0.256815 0.260120
H17   H     H_    0.908569 0.015479 0.310878 0.229908
H18   H     H_    0.956042 0.020169 0.412360 0.218769
H19   H     H_    0.819709 0.828540 0.473337 0.212194
H20   H     H_    0.792412 0.801663 0.366471 0.214589
H21   H     H_    0.932837 0.189549 0.751287 0.259769
H22   H     H_    0.044092 0.260643 0.640771 0.269405
H23   H     H_    0.739764 0.122235 0.452483 0.161321
H24   H     H_    0.077377 0.101646 0.665565 0.243235
H25   H     H_    0.265081 0.251273 0.679872 0.227346
H26   H     H_    0.162363 0.170283 0.786413 0.212983
H27   H     H_    0.996068 0.351415 0.844046 0.199566
H28   H     H_    0.089134 0.437295 0.741952 0.216348
H29   H     H_    0.168296 0.107328 0.498566 0.196810
H30   H     H_    0.333120 0.113393 0.386191 0.199439
H31   H     H_    0.173136 0.886292 0.493939 0.198794
H32   H     H_    0.337175 0.890928 0.381145 0.206466
H33   H     H_    0.912441 0.323922 0.435040 0.138140
H34   H     H_    0.165238 0.324548 0.434334 0.145751
N1    N     N_R   0.856900 0.500860 0.500610 -0.099310
N2    N     N_R   0.142540 0.500820 0.500610 -0.101739
O1    O     O_R   0.385310 0.683210 0.499990 -0.604832
O2    O     O_R   0.614650 0.683240 0.500000 -0.630744
O3    O     O_R   0.319830 0.499970 0.632240 -0.612853
O4    O     O_R   0.549170 0.500000 0.632250 -0.605237
O5    O     O_R   0.385350 0.316760 0.500000 -0.618224
O6    O     O_R   0.614690 0.316790 0.500010 -0.625352
O7    O     O_R   0.450830 0.500000 0.367750 -0.616407
O8    O     O_R   0.680170 0.500030 0.367760 -0.621015
Zn1   Zn    Zn3+2 0.346870 0.499980 0.499990 0.933919
Zn2   Zn    Zn3+2 0.653130 0.500020 0.500010 0.931321

loop_
_geom_bond_atom_site_label_1
_geom_bond_atom_site_label_2
_ccdc_geom_bond_type
N2    Zn1   S    
O5    Zn1   S    
C33   H16   S    
C18   C21   A    
C41   C42   A    
C31   H19   S    
C19   C20   A    
O1    Zn1   S    
C36   H25   S    
C15   H30   S    
C12   C23   A    
C18   C24   S    
C5    C6    A    
C7    H3    S    
C28   C29   A    
C3    C7    A    
C38   C39   A    
C28   H9    S    
O8    Zn2   S    
C23   C40   A    
C16   O6    A    
C7    C27   A    
C20   H34   S    
C19   N1    A    
C41   H13   S    
C10   C31   S    
C40   H1    S    
C22   H2    S    
C4    O3    A    
C31   C32   S    
C35   H28   S    
C8    C9    A    
C21   N2    A    
C8    C14   A    
C3    C38   A    
C9    C10   A    
C33   H14   S    
C13   C14   A    
C17   H31   S    
C31   H20   S    
C34   C41   A    
C37   H21   S    
O7    Zn1   S    
C24   H6    S    
C5    H12   S    
C1    C9    S    
N1    Zn2   S    
C39   C40   A    
C16   O5    A    
C35   C36   S    
C6    C27   A    
C37   H24   S    
C25   O7    A    
C23   C28   A    
O3    Zn1   S    
C42   H8    S    
C22   H4    S    
C26   C30   A    
C17   H32   S    
C1    O1    A    
C22   C24   S    
C2    C5    A    
C32   H18   S    
C12   C34   A    
C37   H22   S    
C15   C17   S    
C30   H10   S    
C36   C37   S    
C33   H15   S    
C12   C30   A    
C34   C38   A    
C24   H5    S    
O6    Zn2   S    
C4    C26   S    
C36   H26   S    
C25   C27   S    
C15   H29   S    
C29   C35   S    
C8    C17   S    
C20   N2    A    
C32   C33   S    
C19   H33   S    
C2    C3    A    
O2    Zn2   S    
C11   C13   A    
C39   H11   S    
C2    C42   A    
C18   N1    A    
O4    Zn2   S    
C25   O8    A    
C6    H7    S    
C10   C11   A    
C4    O4    A    
C35   H27   S    
C26   C29   A    
C13   C16   S    
C1    O2    A    
C14   C15   S    
C32   H17   S    
C21   C22   S    
C11   H23   S    
