data_mof_unit_pretest_1940.cif
_audit_creation_date              2012-12-10T18:14:13-0500
_audit_creation_method            fapswitch 2.2
_symmetry_space_group_name_H-M    P1
_symmetry_Int_Tables_number       1
_space_group_crystal_system       triclinic
_cell_length_a                    32.257482
_cell_length_b                    32.257386
_cell_length_c                    23.700912
_cell_angle_alpha                 89.999711
_cell_angle_beta                  89.998036
_cell_angle_gamma                 90.067742
_cell_volume                      24661.7782662

loop_
_atom_site_label
_atom_site_type_symbol
_atom_type_description
_atom_site_fract_x
_atom_site_fract_y
_atom_site_fract_z
_atom_type_partial_charge
C1    C     C_R   0.999976 0.420423 0.500000 0.818948
C2    C     C_R   0.420423 0.999977 0.500008 0.818747
C3    C     C_R   0.000023 0.579576 0.499999 0.818496
C4    C     C_R   0.579577 0.000024 0.500000 0.819164
C5    C     C_R   0.499975 0.920424 0.999999 0.818612
C6    C     C_R   0.920423 0.499975 0.000007 0.818837
C7    C     C_R   0.500025 0.079576 0.999998 0.818661
C8    C     C_R   0.079576 0.500025 0.000006 0.818814
C9    C     C_1   0.999865 0.161410 0.500128 0.262652
C10   C     C_1   0.161410 0.999832 0.499816 0.266549
C11   C     C_1   0.000134 0.838589 0.500150 0.262525
C12   C     C_1   0.838590 0.000140 0.499878 0.262631
C13   C     C_1   0.499784 0.661411 0.000238 0.262723
C14   C     C_1   0.661409 0.499750 0.999731 0.266434
C15   C     C_1   0.500219 0.338590 0.000239 0.262732
C16   C     C_1   0.338591 0.500241 0.999747 0.266475
C17   C     C_1   0.999860 0.338462 0.500082 0.087519
C18   C     C_1   0.338463 0.999851 0.499913 0.087369
C19   C     C_1   0.000133 0.661537 0.500084 0.087467
C20   C     C_1   0.661538 0.000141 0.499920 0.087521
C21   C     C_1   0.499821 0.838463 0.000135 0.087482
C22   C     C_1   0.838462 0.499805 0.999856 0.087367
C23   C     C_1   0.500179 0.161537 0.000131 0.087481
C24   C     C_1   0.161537 0.500190 0.999861 0.087373
C25   C     C_1   0.999915 0.375882 0.500034 -0.174153
C26   C     C_1   0.375883 0.999915 0.499974 -0.174533
C27   C     C_1   0.000082 0.624117 0.500034 -0.174211
C28   C     C_1   0.624118 0.000085 0.499967 -0.174154
C29   C     C_1   0.499903 0.875883 0.000054 -0.174089
C30   C     C_1   0.875882 0.499900 0.999949 -0.174455
C31   C     C_1   0.500097 0.124117 0.000052 -0.174115
C32   C     C_1   0.124117 0.500099 0.999951 -0.174453
C33   C     C_1   0.999929 0.123995 0.500042 -0.051085
C34   C     C_1   0.123994 0.999917 0.499932 -0.054205
C35   C     C_1   0.000069 0.876005 0.500050 -0.050760
C36   C     C_1   0.876005 0.000074 0.499961 -0.050927
C37   C     C_1   0.499886 0.623995 0.000078 -0.050997
C38   C     C_1   0.623994 0.499872 0.999904 -0.054517
C39   C     C_1   0.500115 0.376005 0.000079 -0.051007
C40   C     C_1   0.376006 0.500123 0.999912 -0.054513
C41   C     C_R   0.000001 0.500000 0.391694 0.823419
C42   C     C_R   0.500000 0.000000 0.391694 0.823659
C43   C     C_R   0.999999 0.500000 0.608306 0.823476
C44   C     C_R   0.500000 1.000000 0.608306 0.823617
C45   C     C_R   0.500001 0.000000 0.891694 0.823335
C46   C     C_R   1.000000 0.500000 0.891694 0.823546
C47   C     C_R   0.499999 1.000000 0.108306 0.823385
C48   C     C_R   1.000000 0.500000 0.108306 0.823462
C49   C     C_R   0.079487 0.999991 0.499991 0.803185
C50   C     C_R   0.000008 0.920513 0.500006 0.804373
C51   C     C_R   0.920513 0.000010 0.499996 0.804470
C52   C     C_R   0.999990 0.079487 0.500005 0.804931
C53   C     C_R   0.579486 0.499983 0.999988 0.804170
C54   C     C_R   0.500016 0.420513 0.000010 0.805699
C55   C     C_R   0.420513 0.500016 0.999990 0.804180
C56   C     C_R   0.499984 0.579487 0.000009 0.805744
C57   C     C_1   0.000002 0.500000 0.330909 -0.157169
C58   C     C_1   0.499999 0.000000 0.330909 -0.156962
C59   C     C_1   0.999998 0.500000 0.669091 -0.157024
C60   C     C_1   0.500001 0.000000 0.669091 -0.156974
C61   C     C_1   0.500002 0.000000 0.830909 -0.156980
C62   C     C_1   0.999999 0.500000 0.830909 -0.157005
C63   C     C_1   0.499998 1.000000 0.169091 -0.156916
C64   C     C_1   0.000001 0.500000 0.169091 -0.157066
C65   C     C_1   0.000002 0.500000 0.279901 0.023009
C66   C     C_1   0.499998 1.000000 0.279901 0.023238
C67   C     C_1   0.999998 0.500000 0.720099 0.023156
C68   C     C_1   0.500001 0.000000 0.720099 0.023194
C69   C     C_1   0.500002 0.000000 0.779901 0.023176
C70   C     C_1   0.999999 0.500000 0.779901 0.023169
C71   C     C_1   0.499998 1.000000 0.220099 0.023241
C72   C     C_1   0.000001 0.500000 0.220099 0.023054
C73   C     C_R   0.032054 0.228225 0.527627 0.312684
C74   C     C_R   0.228127 0.966832 0.525597 0.314366
C75   C     C_R   0.966913 0.771773 0.525275 0.312945
C76   C     C_R   0.771864 0.032004 0.528183 0.312801
C77   C     C_R   0.967483 0.228134 0.472927 0.312781
C78   C     C_R   0.771778 0.968468 0.471282 0.312723
C79   C     C_R   0.033553 0.771868 0.475368 0.310217
C80   C     C_R   0.228223 0.032581 0.473568 0.311550
C81   C     C_R   0.532508 0.728225 0.026525 0.312884
C82   C     C_R   0.728129 0.466984 0.026061 0.313904
C83   C     C_R   0.467566 0.271776 0.026692 0.312884
C84   C     C_R   0.271869 0.533053 0.025967 0.313914
C85   C     C_R   0.466755 0.728135 0.974496 0.310387
C86   C     C_R   0.271781 0.467766 0.972882 0.311538
C87   C     C_R   0.533177 0.271867 0.974325 0.310530
C88   C     C_R   0.728220 0.532167 0.972738 0.311479
C89   C     C_R   0.999795 0.206355 0.500235 -0.266966
C90   C     C_R   0.206352 0.999744 0.499661 -0.264852
C91   C     C_R   0.000207 0.793644 0.500274 -0.266239
C92   C     C_R   0.793645 0.000210 0.499774 -0.266948
C93   C     C_R   0.499672 0.706356 0.000434 -0.266222
C94   C     C_R   0.706351 0.499625 0.999505 -0.264866
C95   C     C_R   0.500331 0.293645 0.000434 -0.266174
C96   C     C_R   0.293649 0.500362 0.999528 -0.264867
C97   C     C_R   0.965763 0.271745 0.477433 0.325985
C98   C     C_R   0.271826 0.034240 0.478231 0.326275
C99   C     C_R   0.035075 0.728252 0.479943 0.326814
C100  C     C_R   0.728176 0.966620 0.475828 0.325983
C101  C     C_R   0.033816 0.271827 0.523019 0.325987
C102  C     C_R   0.728254 0.033808 0.523733 0.325958
C103  C     C_R   0.965336 0.728171 0.520550 0.325922
C104  C     C_R   0.271746 0.965251 0.521158 0.324377
C105  C     C_R   0.465175 0.771754 0.978994 0.326783
C106  C     C_R   0.771817 0.533903 0.977411 0.326279
C107  C     C_R   0.534763 0.228247 0.978801 0.326688
C108  C     C_R   0.228183 0.466043 0.977554 0.326235
C109  C     C_R   0.534197 0.771820 0.021801 0.325889
C110  C     C_R   0.228247 0.534655 0.021572 0.324444
C111  C     C_R   0.465867 0.228180 0.021983 0.325920
C112  C     C_R   0.771752 0.465378 0.021682 0.324393
C113  C     C_R   0.999815 0.293544 0.500164 -0.214651
C114  C     C_R   0.293544 0.999780 0.499783 -0.213956
C115  C     C_R   0.000178 0.706455 0.500173 -0.214551
C116  C     C_R   0.706457 0.000188 0.499840 -0.214588
C117  C     C_R   0.499736 0.793544 0.000278 -0.214496
C118  C     C_R   0.793543 0.499697 0.999675 -0.213870
C119  C     C_R   0.500264 0.206456 0.000273 -0.214514
C120  C     C_R   0.206456 0.500296 0.999686 -0.213867
Cu1   Cu    Cu3+1 0.958970 0.500000 0.500000 0.991684
Cu2   Cu    Cu3+1 0.500000 0.041030 0.500000 0.991496
Cu3   Cu    Cu3+1 0.041030 0.500000 0.500000 0.991698
Cu4   Cu    Cu3+1 0.500000 0.958970 0.500000 0.991347
Cu5   Cu    Cu3+1 0.458970 0.000000 0.000000 0.991634
Cu6   Cu    Cu3+1 1.000000 0.541030 0.000000 0.991272
Cu7   Cu    Cu3+1 0.541030 0.000000 0.000000 0.992672
Cu8   Cu    Cu3+1 0.000000 0.458970 0.000000 0.992139
Cu9   Cu    Cu3+1 1.000000 0.000000 0.444230 1.083357
Cu10  Cu    Cu3+1 1.000000 0.000000 0.555770 1.075886
Cu11  Cu    Cu3+1 0.500000 0.500000 0.944230 1.082465
Cu12  Cu    Cu3+1 0.500000 0.500000 0.055770 1.067502
O1    O     O_R   0.965350 0.440130 0.499980 -0.578334
O2    O     O_R   0.440130 0.034650 0.499980 -0.578052
O3    O     O_R   0.034650 0.559870 0.499980 -0.578102
O4    O     O_R   0.559870 0.965350 0.499980 -0.578321
O5    O     O_R   0.034650 0.440130 0.500020 -0.578191
O6    O     O_R   0.559870 0.034650 0.500020 -0.578427
O7    O     O_R   0.965350 0.559870 0.500020 -0.577948
O8    O     O_R   0.440130 0.965350 0.500020 -0.578342
O9    O     O_R   0.465350 0.940130 0.999980 -0.578291
O10   O     O_R   0.940130 0.534650 0.999980 -0.578139
O11   O     O_R   0.534650 0.059870 0.999980 -0.578102
O12   O     O_R   0.059870 0.465350 0.999980 -0.577966
O13   O     O_R   0.534650 0.940130 0.000020 -0.577895
O14   O     O_R   0.059870 0.534650 0.000020 -0.578457
O15   O     O_R   0.465350 0.059870 0.000020 -0.578112
O16   O     O_R   0.940130 0.465350 0.000020 -0.578296
O17   O     O_R   0.059790 0.999980 0.452860 -0.562528
O18   O     O_R   0.999980 0.940210 0.452860 -0.563214
O19   O     O_R   0.940210 0.000020 0.452860 -0.562693
O20   O     O_R   0.000020 0.059790 0.452860 -0.562754
O21   O     O_R   0.940210 0.999980 0.547140 -0.562632
O22   O     O_R   0.000020 0.940210 0.547140 -0.566244
O23   O     O_R   0.059790 0.000020 0.547140 -0.567567
O24   O     O_R   0.999980 0.059790 0.547140 -0.562855
O25   O     O_R   0.559790 0.499980 0.952860 -0.562304
O26   O     O_R   0.499980 0.440210 0.952860 -0.562691
O27   O     O_R   0.440210 0.500020 0.952860 -0.562315
O28   O     O_R   0.500020 0.559790 0.952860 -0.562702
O29   O     O_R   0.440210 0.499980 0.047140 -0.567294
O30   O     O_R   0.500020 0.440210 0.047140 -0.565736
O31   O     O_R   0.559790 0.500020 0.047140 -0.567285
O32   O     O_R   0.499980 0.559790 0.047140 -0.565782
O33   O     O_R   0.965350 0.499980 0.418590 -0.574569
O34   O     O_R   0.499980 0.034650 0.418590 -0.574112
O35   O     O_R   0.034650 0.500020 0.418590 -0.574141
O36   O     O_R   0.500020 0.965350 0.418590 -0.574561
O37   O     O_R   0.034650 0.499980 0.581410 -0.574496
O38   O     O_R   0.500020 0.034650 0.581410 -0.574532
O39   O     O_R   0.965350 0.500020 0.581410 -0.574073
O40   O     O_R   0.499980 0.965350 0.581410 -0.574150
O41   O     O_R   0.465350 0.999980 0.918590 -0.574448
O42   O     O_R   0.999980 0.534650 0.918590 -0.574450
O43   O     O_R   0.534650 0.000020 0.918590 -0.574089
O44   O     O_R   0.000020 0.465350 0.918590 -0.574133
O45   O     O_R   0.534650 0.999980 0.081410 -0.574078
O46   O     O_R   0.000020 0.534650 0.081410 -0.574454
O47   O     O_R   0.465350 0.000020 0.081410 -0.574400
O48   O     O_R   0.999980 0.465350 0.081410 -0.574186
O49   O     O_3   0.067358 0.293356 0.544994 -0.535574
C121  C     C_3   0.092940 0.308334 0.500736 0.077106
H1    H     H_    0.107955 0.337281 0.515879 0.177154
H2    H     H_    0.075543 0.316802 0.461737 0.124334
C122  C     C_3   0.126820 0.276882 0.486125 -0.303159
H3    H     H_    0.144449 0.268723 0.524826 0.269860
H4    H     H_    0.112348 0.248322 0.468880 0.250439
C123  C     C_3   0.156818 0.294229 0.442279 -0.886757
H5    H     H_    0.140000 0.302036 0.402788 0.261991
H6    H     H_    0.180826 0.270666 0.432457 0.276254
H7    H     H_    0.172405 0.322471 0.458743 0.261575
O50   O     O_3   0.293186 0.931335 0.542068 -0.535522
C124  C     C_3   0.308636 0.906803 0.497053 0.073324
H8    H     H_    0.337742 0.891984 0.511861 0.177623
H9    H     H_    0.316953 0.924991 0.458649 0.123984
C125  C     C_3   0.277670 0.872719 0.481189 -0.297339
H10   H     H_    0.269414 0.854478 0.519344 0.272336
H11   H     H_    0.249094 0.887064 0.463904 0.244014
C126  C     C_3   0.295653 0.843541 0.436846 -0.886260
H12   H     H_    0.303590 0.860988 0.397897 0.261044
H13   H     H_    0.272414 0.819380 0.426085 0.277198
H14   H     H_    0.323924 0.828077 0.453318 0.261267
O51   O     O_3   0.930991 0.706639 0.540094 -0.535457
C127  C     C_3   0.907174 0.691631 0.494068 0.077307
H15   H     H_    0.891689 0.662625 0.508087 0.177123
H16   H     H_    0.926051 0.683258 0.456325 0.123935
C128  C     C_3   0.873805 0.723003 0.477153 -0.302784
H17   H     H_    0.854708 0.731071 0.514580 0.269621
H18   H     H_    0.888833 0.751621 0.460996 0.250540
C129  C     C_3   0.845560 0.705619 0.431232 -0.888308
H19   H     H_    0.863875 0.697902 0.392960 0.261766
H20   H     H_    0.821887 0.729123 0.419781 0.276137
H21   H     H_    0.829451 0.677315 0.446533 0.261667
O52   O     O_3   0.706803 0.066945 0.546819 -0.535683
C130  C     C_3   0.691728 0.093220 0.503418 0.077246
H22   H     H_    0.662782 0.107864 0.519103 0.176960
H23   H     H_    0.683233 0.076467 0.463893 0.124483
C131  C     C_3   0.723117 0.127456 0.489809 -0.302647
H24   H     H_    0.731263 0.144482 0.529028 0.269697
H25   H     H_    0.751693 0.113384 0.472105 0.250630
C132  C     C_3   0.705698 0.158095 0.446902 -0.888055
H26   H     H_    0.697907 0.141899 0.406913 0.262241
H27   H     H_    0.729213 0.182358 0.437802 0.275752
H28   H     H_    0.677434 0.173288 0.463858 0.261595
O53   O     O_3   0.932211 0.293194 0.455486 -0.535649
C133  C     C_3   0.906749 0.308282 0.499769 0.077312
H29   H     H_    0.891845 0.337243 0.484597 0.176887
H30   H     H_    0.924224 0.316757 0.538719 0.124373
C134  C     C_3   0.872748 0.276917 0.514521 -0.302803
H31   H     H_    0.855002 0.268795 0.475889 0.269524
H32   H     H_    0.887118 0.248326 0.531724 0.250693
C135  C     C_3   0.842920 0.294348 0.558467 -0.888271
H33   H     H_    0.859851 0.302116 0.597897 0.262182
H34   H     H_    0.818813 0.270851 0.568377 0.275778
H35   H     H_    0.827443 0.322630 0.542050 0.261603
O54   O     O_3   0.706649 0.933494 0.452712 -0.535654
C136  C     C_3   0.691674 0.907101 0.496083 0.076975
H36   H     H_    0.662734 0.892360 0.480428 0.177117
H37   H     H_    0.683196 0.923774 0.535661 0.124490
C137  C     C_3   0.723136 0.872973 0.509540 -0.303232
H38   H     H_    0.731305 0.856064 0.470251 0.269935
H39   H     H_    0.751689 0.887133 0.527280 0.250448
C138  C     C_3   0.705793 0.842173 0.552345 -0.886209
H40   H     H_    0.697975 0.858256 0.592396 0.262082
H41   H     H_    0.729361 0.817998 0.561347 0.276291
H42   H     H_    0.677557 0.826885 0.535349 0.261541
O55   O     O_3   0.069417 0.706797 0.460404 -0.535347
C139  C     C_3   0.093082 0.691586 0.506421 0.073564
H43   H     H_    0.108281 0.662470 0.492387 0.177097
H44   H     H_    0.074139 0.683349 0.544182 0.124280
C140  C     C_3   0.126752 0.722707 0.523339 -0.297664
H45   H     H_    0.145977 0.730571 0.485935 0.269567
H46   H     H_    0.112002 0.751465 0.539388 0.253253
C141  C     C_3   0.154760 0.705151 0.569362 -0.883859
H47   H     H_    0.136323 0.697642 0.607618 0.260913
H48   H     H_    0.178673 0.728472 0.580800 0.278781
H49   H     H_    0.170580 0.676691 0.554167 0.260440
O56   O     O_3   0.293355 0.068226 0.457553 -0.535688
C142  C     C_3   0.308353 0.092876 0.502769 0.077473
H50   H     H_    0.337385 0.108068 0.488266 0.176949
H51   H     H_    0.316677 0.074698 0.541162 0.124328
C143  C     C_3   0.277001 0.126579 0.518490 -0.302512
H52   H     H_    0.268973 0.144978 0.480407 0.269545
H53   H     H_    0.248361 0.111883 0.535128 0.251081
C144  C     C_3   0.294380 0.155660 0.563442 -0.887655
H54   H     H_    0.302053 0.138062 0.602348 0.261952
H55   H     H_    0.270890 0.179562 0.574041 0.276177
H56   H     H_    0.322708 0.171453 0.547626 0.261585
O57   O     O_3   0.568203 0.793342 0.042425 -0.535519
C145  C     C_3   0.592858 0.808253 0.997162 0.077217
H57   H     H_    0.608240 0.837179 0.011682 0.177342
H58   H     H_    0.574649 0.816735 0.958862 0.124176
C146  C     C_3   0.626356 0.776733 0.981245 -0.303549
H59   H     H_    0.644772 0.768539 0.019247 0.269900
H60   H     H_    0.611471 0.748201 0.964570 0.250307
C147  C     C_3   0.655455 0.794019 0.936252 -0.886269
H61   H     H_    0.637831 0.801863 0.897432 0.261867
H62   H     H_    0.679199 0.770408 0.925500 0.276337
H63   H     H_    0.671440 0.822229 0.952105 0.261767
O58   O     O_3   0.793201 0.431686 0.043234 -0.535564
C148  C     C_3   0.808682 0.406721 0.998684 0.073536
H64   H     H_    0.837781 0.392051 0.013791 0.177733
H65   H     H_    0.817022 0.424534 0.959964 0.124086
C149  C     C_3   0.777729 0.372483 0.983401 -0.297790
H66   H     H_    0.769471 0.354599 0.021867 0.272415
H67   H     H_    0.749151 0.386655 0.965857 0.243843
C150  C     C_3   0.795733 0.342899 0.939579 -0.885749
H68   H     H_    0.803670 0.359984 0.900334 0.261152
H69   H     H_    0.772504 0.318630 0.929234 0.276893
H70   H     H_    0.824007 0.327605 0.956332 0.261603
O59   O     O_3   0.431923 0.206656 0.042795 -0.535511
C151  C     C_3   0.407145 0.191732 0.997669 0.077093
H71   H     H_    0.391856 0.162773 0.012253 0.177205
H72   H     H_    0.425238 0.183301 0.959243 0.124086
C152  C     C_3   0.373548 0.223211 0.982000 -0.303067
H73   H     H_    0.355248 0.231352 0.020128 0.269867
H74   H     H_    0.388336 0.251775 0.965266 0.250367
C153  C     C_3   0.344325 0.205907 0.937171 -0.887212
H75   H     H_    0.361832 0.198117 0.898232 0.261772
H76   H     H_    0.320508 0.229489 0.926600 0.276338
H77   H     H_    0.328439 0.177662 0.953092 0.261653
O60   O     O_3   0.206797 0.568390 0.043000 -0.535541
C154  C     C_3   0.191333 0.593275 0.998358 0.073414
H78   H     H_    0.162262 0.608021 0.013428 0.177618
H79   H     H_    0.182950 0.575382 0.959724 0.124039
C155  C     C_3   0.222326 0.627435 0.982896 -0.297439
H80   H     H_    0.230631 0.645394 0.021277 0.272388
H81   H     H_    0.250873 0.613183 0.965378 0.243741
C156  C     C_3   0.204337 0.656946 0.938971 -0.886940
H82   H     H_    0.196348 0.639783 0.899809 0.261100
H83   H     H_    0.227596 0.681155 0.928491 0.276891
H84   H     H_    0.176097 0.672321 0.955694 0.261350
O61   O     O_3   0.431171 0.793215 0.958398 -0.535396
C157  C     C_3   0.406765 0.808458 0.003674 0.073676
H85   H     H_    0.391752 0.837533 0.989121 0.177082
H86   H     H_    0.425099 0.816776 0.041950 0.124439
C158  C     C_3   0.372873 0.777318 0.019700 -0.297923
H87   H     H_    0.354235 0.769391 0.981777 0.269505
H88   H     H_    0.387402 0.748593 0.036228 0.253303
C159  C     C_3   0.344145 0.794895 0.064879 -0.883808
H89   H     H_    0.361982 0.802466 0.103634 0.261086
H90   H     H_    0.320087 0.771561 0.075686 0.278581
H91   H     H_    0.328533 0.823320 0.049177 0.260417
O62   O     O_3   0.206662 0.432232 0.956341 -0.535713
C160  C     C_3   0.191739 0.407160 0.001170 0.077417
H92   H     H_    0.162767 0.391984 0.986418 0.177122
H93   H     H_    0.183331 0.424998 0.039825 0.124456
C161  C     C_3   0.223204 0.373443 0.016405 -0.303021
H94   H     H_    0.231325 0.355393 0.978049 0.269757
H95   H     H_    0.251779 0.388103 0.033305 0.250888
C162  C     C_3   0.205899 0.343929 0.060883 -0.886394
H96   H     H_    0.198128 0.361177 0.100043 0.261976
H97   H     H_    0.229471 0.320030 0.071147 0.276339
H98   H     H_    0.177642 0.328163 0.044786 0.261675
O63   O     O_3   0.568700 0.206783 0.958005 -0.535400
C163  C     C_3   0.593231 0.191512 0.003136 0.073877
H99   H     H_    0.608098 0.162374 0.988536 0.177262
H100  H     H_    0.575025 0.183296 0.041571 0.124423
C164  C     C_3   0.627275 0.222569 0.018840 -0.298058
H101  H     H_    0.645784 0.230398 0.980759 0.269540
H102  H     H_    0.612895 0.251355 0.035415 0.253519
C165  C     C_3   0.656132 0.204959 0.063838 -0.882845
H103  H     H_    0.638428 0.197485 0.102743 0.261152
H104  H     H_    0.680303 0.228233 0.074410 0.278511
H105  H     H_    0.671594 0.176468 0.048078 0.260704
O64   O     O_3   0.793338 0.567673 0.956075 -0.535698
C166  C     C_3   0.808248 0.592840 0.000811 0.077332
H106  H     H_    0.837215 0.607995 0.986004 0.177032
H107  H     H_    0.816661 0.575081 0.039530 0.124385
C167  C     C_3   0.776769 0.626577 0.015922 -0.302737
H108  H     H_    0.768641 0.644546 0.977500 0.269789
H109  H     H_    0.748198 0.611943 0.032880 0.250818
C168  C     C_3   0.794060 0.656188 0.060285 -0.887146
H110  H     H_    0.801828 0.639026 0.099514 0.261862
H111  H     H_    0.770482 0.680104 0.070451 0.276350
H112  H     H_    0.822315 0.671926 0.044131 0.261595
S1    S     S_3+6 0.070099 0.200753 0.567242 0.027954
O65   O     O_2   0.096307 0.229419 0.602308 -0.224908
O66   O     O_2   0.048801 0.170420 0.605740 -0.269204
O67   O     O_3   0.100617 0.174433 0.522305 -0.568065
H113  H     H_    0.119825 0.158574 0.546713 0.390294
S2    S     S_3+6 0.200507 0.927702 0.563106 0.028312
O68   O     O_2   0.178025 0.900698 0.521427 -0.325433
O69   O     O_2   0.228918 0.901387 0.598311 -0.218544
O70   O     O_3   0.165598 0.950293 0.605903 -0.520224
H114  H     H_    0.147485 0.927398 0.618941 0.383629
S3    S     S_3+6 0.927365 0.799243 0.562067 0.027496
O71   O     O_2   0.899834 0.770575 0.595204 -0.225214
O72   O     O_2   0.947117 0.829592 0.602035 -0.270367
O73   O     O_3   0.898636 0.825543 0.514976 -0.567342
H115  H     H_    0.878416 0.841297 0.537953 0.390780
S4    S     S_3+6 0.799477 0.069490 0.568716 0.027955
O74   O     O_2   0.770924 0.095229 0.604497 -0.224808
O75   O     O_2   0.829790 0.047659 0.606609 -0.269359
O76   O     O_3   0.825833 0.100602 0.524485 -0.566888
H116  H     H_    0.841970 0.119322 0.549310 0.390513
S5    S     S_3+6 0.929256 0.200518 0.433698 0.027897
O77   O     O_2   0.902858 0.229069 0.398817 -0.225016
O78   O     O_2   0.950377 0.170206 0.395062 -0.269397
O79   O     O_3   0.898977 0.174160 0.478984 -0.566526
H117  H     H_    0.879769 0.158062 0.454810 0.390781
S6    S     S_3+6 0.799255 0.931169 0.430379 0.028032
O80   O     O_2   0.770593 0.905614 0.394427 -0.224732
O81   O     O_2   0.829587 0.953175 0.392623 -0.268904
O82   O     O_3   0.825573 0.899835 0.474260 -0.568523
H118  H     H_    0.841504 0.881139 0.449207 0.389879
S7    S     S_3+6 0.073302 0.799499 0.439060 0.029093
O83   O     O_2   0.101081 0.770965 0.406201 -0.226717
O84   O     O_2   0.053764 0.829809 0.398907 -0.272429
O85   O     O_3   0.101696 0.825863 0.486546 -0.541983
H119  H     H_    0.121833 0.841980 0.463839 0.398551
S8    S     S_3+6 0.200752 0.071454 0.435466 0.027782
O86   O     O_2   0.229417 0.098379 0.401415 -0.225074
O87   O     O_2   0.170402 0.050985 0.396172 -0.270300
O88   O     O_3   0.174452 0.101025 0.481582 -0.566655
H120  H     H_    0.158611 0.120755 0.457935 0.390458
S9    S     S_3+6 0.571331 0.700767 0.064730 0.027397
O89   O     O_2   0.598215 0.729452 0.098809 -0.225278
O90   O     O_2   0.550813 0.670438 0.104009 -0.270460
O91   O     O_3   0.600956 0.674444 0.018708 -0.568047
H121  H     H_    0.620746 0.658732 0.042418 0.390452
S10   S     S_3+6 0.700504 0.428215 0.064250 0.028372
O92   O     O_2   0.677993 0.400836 0.023049 -0.323285
O93   O     O_2   0.728914 0.402218 0.099889 -0.218721
O94   O     O_3   0.665620 0.451221 0.106673 -0.520451
H122  H     H_    0.647512 0.428456 0.120132 0.383528
S11   S     S_3+6 0.428847 0.299236 0.065088 0.027500
O95   O     O_2   0.402050 0.270554 0.099299 -0.225079
O96   O     O_2   0.449472 0.329563 0.104264 -0.270397
O97   O     O_3   0.399106 0.325561 0.019210 -0.568138
H123  H     H_    0.379417 0.341322 0.043020 0.390450
S12   S     S_3+6 0.299489 0.571890 0.064032 0.028387
O98   O     O_2   0.321993 0.599205 0.022743 -0.323689
O99   O     O_2   0.271076 0.597942 0.099596 -0.218626
O100  O     O_3   0.334380 0.548962 0.106521 -0.520352
H124  H     H_    0.352492 0.571751 0.119893 0.383541
S13   S     S_3+6 0.427589 0.700496 0.937046 0.029015
O101  O     O_2   0.400326 0.729022 0.903385 -0.226687
O102  O     O_2   0.447758 0.670186 0.897474 -0.272496
O103  O     O_3   0.398462 0.674130 0.983711 -0.541774
H125  H     H_    0.378756 0.657916 0.960438 0.397026
S14   S     S_3+6 0.299247 0.429291 0.934039 0.027641
O104  O     O_2   0.270571 0.402710 0.899510 -0.225121
O105  O     O_2   0.329578 0.450164 0.895111 -0.270342
O106  O     O_3   0.325568 0.399261 0.979572 -0.567241
H126  H     H_    0.341358 0.379744 0.955536 0.390154
S15   S     S_3+6 0.572246 0.299510 0.936692 0.028993
O107  O     O_2   0.599420 0.270989 0.902890 -0.226639
O108  O     O_2   0.551973 0.329825 0.897229 -0.272637
O109  O     O_3   0.601492 0.325867 0.983224 -0.541706
H127  H     H_    0.621104 0.342125 0.959859 0.396765
S16   S     S_3+6 0.700758 0.570555 0.933734 0.027738
O110  O     O_2   0.729438 0.597061 0.899102 -0.224926
O111  O     O_2   0.670435 0.549594 0.894885 -0.270246
O112  O     O_3   0.674428 0.600684 0.979137 -0.567356
H128  H     H_    0.658628 0.620135 0.955017 0.390138

loop_
_geom_bond_atom_site_label_1
_geom_bond_atom_site_label_2
_ccdc_geom_bond_type
S14   O105  D    
S15   O107  D    
S1    O65   D    
C82   C94   A    
C108  O62   S    
C101  C113  A    
O106  H126  S    
C108  C120  A    
O59   C151  S    
S7    O85   S    
C79   S7    S    
C42   C58   S    
C154  H79   S    
C148  C149  S    
C77   C89   A    
C2    O2    A    
C46   C62   S    
C123  H7    S    
C79   C99   A    
O103  H125  S    
S9    O90   D    
C98   C114  A    
C78   S6    S    
C146  C147  S    
C111  O59   S    
S4    O74   D    
C62   C70   T    
S11   O97   S    
C164  H102  S    
Cu12  O29   S    
S5    O79   S    
C141  H48   S    
C76   S4    S    
Cu4   O36   S    
C37   C56   S    
O62   C160  S    
Cu2   O38   S    
C18   C26   T    
Cu5   O47   S    
C128  C129  S    
C46   O42   A    
Cu8   O48   S    
C162  H98   S    
C75   S3    S    
C88   S16   S    
C98   O56   S    
C73   C101  A    
C126  H12   S    
C158  H88   S    
C106  C118  A    
C75   C103  A    
C168  H111  S    
C139  H44   S    
C24   C120  S    
C159  H91   S    
C77   S5    S    
Cu9   O20   S    
S8    O87   D    
C165  H103  S    
C125  H10   S    
C20   C28   T    
C157  H85   S    
C21   C29   T    
C121  C122  S    
C23   C31   T    
Cu11  O26   S    
C130  H22   S    
C44   O40   A    
C134  H31   S    
C45   O41   A    
C14   C38   T    
C154  H78   S    
Cu4   O40   S    
C40   C55   S    
C135  H34   S    
C155  H80   S    
O64   C166  S    
C2    C26   S    
Cu7   O11   S    
Cu8   O12   S    
C15   C39   T    
C16   C40   T    
S16   O110  D    
C6    C30   S    
C63   C71   T    
S1    O67   S    
C145  H58   S    
C100  O54   S    
C153  H75   S    
S7    O83   D    
C5    C29   S    
C22   C118  S    
C149  H66   S    
C49   O23   A    
C149  C150  S    
C86   C108  A    
C163  H99   S    
C142  H51   S    
C165  H105  S    
O76   H116  S    
C56   O32   A    
S4    O76   S    
C17   C25   T    
C74   C90   A    
C11   C35   T    
Cu12  O31   S    
O70   H114  S    
C47   C63   S    
C38   C53   S    
S12   O99   D    
C82   S10   S    
Cu6   O46   S    
S3    O73   S    
C83   S11   S    
C167  H108  S    
Cu1   Cu3   S    
C73   C89   A    
O63   C163  S    
C11   C91   S    
C87   C107  A    
C124  H8    S    
Cu5   Cu7   S    
Cu10  O24   S    
O94   H122  S    
O79   H117  S    
C104  O50   S    
C48   O46   A    
O73   H115  S    
O61   C157  S    
C17   C113  S    
C152  H74   S    
C33   C52   S    
S15   O108  D    
S12   O98   D    
C134  C135  S    
C45   O43   A    
C23   C119  S    
C122  H4    S    
C39   C54   S    
C54   O26   A    
S2    O68   D    
C88   C106  A    
O54   C136  S    
C111  C119  A    
C160  H93   S    
Cu2   O2    S    
C59   C67   T    
C121  H1    S    
C85   C93   A    
S16   O112  S    
Cu5   O9    S    
C87   C95   A    
C126  H14   S    
C21   C117  S    
C77   C97   A    
C103  O51   S    
C79   C91   A    
C80   S8    S    
C43   C59   S    
C124  C125  S    
C136  H36   S    
C163  C164  S    
C1    O1    A    
O67   H113  S    
S13   O102  D    
O53   C133  S    
C7    O15   A    
C156  H83   S    
C76   C102  A    
C88   C94   A    
C16   C96   S    
C5    O13   A    
O58   C148  S    
C55   O29   A    
C10   C34   T    
C130  C131  S    
C43   O39   A    
C140  C141  S    
C141  H49   S    
C78   C92   A    
C54   O30   A    
Cu3   O3    S    
C159  H90   S    
C112  O58   S    
Cu9   O17   S    
C132  H26   S    
C131  H25   S    
C138  H42   S    
C150  H69   S    
Cu10  O22   S    
Cu11  O27   S    
C144  H55   S    
C60   C68   T    
O97   H123  S    
C129  H20   S    
C149  H67   S    
S14   O104  D    
C3    O7    A    
C99   O55   S    
C48   O48   A    
C1    O5    A    
C131  C132  S    
C74   C104  A    
S10   O92   D    
C51   O21   A    
C34   C49   S    
Cu6   Cu8   S    
C22   C30   T    
C125  C126  S    
C12   C92   S    
S12   O100  S    
C8    O14   A    
C147  H62   S    
C161  H94   S    
S7    O84   D    
Cu6   O42   S    
C85   S13   S    
C143  H52   S    
C148  H65   S    
C129  H21   S    
Cu1   O33   S    
Cu3   O5    S    
C67   C70   S    
Cu1   O7    S    
C3    C27   S    
O56   C142  S    
S9    O89   D    
C166  C167  S    
S16   O111  D    
C137  H38   S    
C146  H60   S    
S4    O75   D    
S11   O96   D    
C101  O49   S    
Cu12  O30   S    
S5    O78   D    
C164  C165  S    
C147  H61   S    
S14   O106  S    
C133  H29   S    
C136  C137  S    
C128  H18   S    
Cu2   Cu4   S    
C97   O53   S    
S6    O80   D    
C74   S2    S    
C107  O63   S    
C100  C116  A    
C143  C144  S    
C168  H110  S    
C43   O37   A    
C109  C117  A    
C140  H45   S    
O49   C121  S    
C6    O16   A    
Cu9   O19   S    
C132  H28   S    
C15   C95   S    
C165  H104  S    
C48   C64   S    
C157  H86   S    
C138  H40   S    
C107  C119  A    
Cu11  O25   S    
C102  O52   S    
C68   C69   S    
C155  H81   S    
C6    O10   A    
C4    O4    A    
C157  C158  S    
C55   O27   A    
C51   O19   A    
S1    O66   D    
O57   C145  S    
C9    C33   T    
C84   S12   S    
C145  C146  S    
C105  C117  A    
C153  H76   S    
C161  C162  S    
C7    O11   A    
C42   O36   A    
C154  C155  S    
Cu7   O43   S    
Cu8   O44   S    
C155  C156  S    
Cu4   O4    S    
C128  H17   S    
Cu7   O45   S    
Cu2   O6    S    
C163  H100  S    
Cu5   O15   S    
S9    O91   S    
C9    C89   S    
C152  H73   S    
Cu8   O16   S    
C167  C168  S    
Cu6   O10   S    
C137  C138  S    
C13   C93   S    
C153  H77   S    
C82   C112  A    
C103  C115  A    
C162  H96   S    
Cu12  O32   S    
C141  H47   S    
C109  O57   S    
C66   C71   S    
C147  H63   S    
C52   O20   A    
C150  H70   S    
S3    O72   D    
C167  H109  S    
C86   C96   A    
C125  H11   S    
C81   C109  A    
C78   C100  A    
C83   C111  A    
C105  O61   S    
Cu11  Cu12  S    
C65   C72   S    
C166  H106  S    
C168  H112  S    
C139  H43   S    
O82   H118  S    
C80   C98   A    
C53   O25   A    
Cu4   O8    S    
C53   O31   A    
C57   C65   T    
S8    O86   D    
O88   H120  S    
O85   H119  S    
S6    O82   S    
C132  H27   S    
C73   S1    S    
Cu9   Cu10  S    
C41   C57   S    
C134  H32   S    
C159  H89   S    
C127  H16   S    
C122  H3    S    
S2    O69   D    
C44   C60   S    
C99   C115  A    
C45   C61   S    
C135  H33   S    
C3    O3    A    
C160  H92   S    
C4    O6    A    
C10   C90   S    
C47   O45   A    
C126  H13   S    
C145  H57   S    
C14   C94   S    
C42   O34   A    
S2    O70   S    
O51   C127  S    
Cu2   O34   S    
C158  C159  S    
S3    O71   D    
S10   O93   D    
C142  C143  S    
Cu5   O41   S    
C18   C114  S    
C24   C32   T    
S13   O101  D    
Cu6   O14   S    
C156  H82   S    
C123  H6    S    
C151  H71   S    
C130  H23   S    
C140  H46   S    
C136  H37   S    
C84   C96   A    
O109  H127  S    
C47   O47   A    
C106  O64   S    
C58   C66   T    
C164  H101  S    
C87   S15   S    
C124  H9    S    
C41   O33   A    
S11   O95   D    
C127  C128  S    
Cu10  O23   S    
C12   C36   T    
C19   C27   T    
C144  H54   S    
C13   C37   T    
C139  C140  S    
Cu3   O35   S    
C1    C25   S    
C158  H87   S    
S8    O88   S    
C85   C105  A    
C4    C28   S    
C152  C153  S    
C121  H2    S    
S15   O109  S    
C7    C31   S    
C8    C32   S    
C161  H95   S    
C110  C120  A    
C20   C116  S    
O52   C130  S    
C122  C123  S    
C143  H53   S    
C81   S9    S    
C148  H64   S    
C151  H72   S    
C135  H35   S    
C84   C110  A    
C123  H5    S    
C160  C161  S    
C166  H107  S    
S10   O94   S    
C81   C93   A    
C50   O18   A    
C5    O9    A    
O100  H124  S    
C86   S14   S    
C19   C115  S    
C83   C95   A    
C35   C50   S    
C137  H39   S    
C146  H59   S    
C8    O12   A    
C127  H15   S    
C162  H97   S    
S5    O77   D    
Cu3   O37   S    
C36   C51   S    
C76   C92   A    
C104  C114  A    
Cu1   O39   S    
Cu7   O13   S    
C133  H30   S    
C110  O60   S    
C150  H68   S    
C46   O44   A    
C97   C113  A    
C142  H50   S    
S13   O103  S    
C156  H84   S    
C61   C69   T    
O60   C154  S    
S6    O81   D    
C151  C152  S    
O55   C139  S    
C75   C91   A    
C52   O24   A    
C133  C134  S    
O91   H121  S    
C49   O17   A    
C2    O8    A    
O50   C124  S    
Cu9   O18   S    
C56   O28   A    
C112  C118  A    
C131  H24   S    
C50   O22   A    
C41   O35   A    
Cu10  O21   S    
C64   C72   T    
C80   C90   A    
Cu11  O28   S    
C144  H56   S    
C44   O38   A    
C102  C116  A    
O112  H128  S    
C129  H19   S    
C138  H41   S    
Cu1   O1    S    
