data_mof_unit_pretest_1925.cif
_audit_creation_date              2012-12-10T19:39:31-0500
_audit_creation_method            fapswitch 2.2
_symmetry_space_group_name_H-M    P1
_symmetry_Int_Tables_number       1
_space_group_crystal_system       triclinic
_cell_length_a                    15.842903
_cell_length_b                    17.116538
_cell_length_c                    17.391106
_cell_angle_alpha                 89.404193
_cell_angle_beta                  96.82325
_cell_angle_gamma                 83.338447
_cell_volume                      4649.63045178

loop_
_atom_site_label
_atom_site_type_symbol
_atom_type_description
_atom_site_fract_x
_atom_site_fract_y
_atom_site_fract_z
_atom_type_partial_charge
C1    C     C_R   0.510596 0.348547 0.500544 0.830527
C2    C     C_R   0.489404 0.651453 0.499456 0.830527
C3    C     C_R   0.516261 0.262455 0.500870 -0.023330
C4    C     C_R   0.483739 0.737545 0.499130 -0.023330
C5    C     C_R   0.441335 0.225624 0.497504 -0.183996
C6    C     C_R   0.558664 0.774376 0.502495 -0.183995
C7    C     C_R   0.445877 0.144096 0.497717 -0.141777
C8    C     C_R   0.554123 0.855904 0.502282 -0.141777
C9    C     C_R   0.525973 0.097717 0.501343 0.379707
C10   C     C_R   0.474027 0.902282 0.498657 0.379707
C11   C     C_R   0.600533 0.134597 0.504748 -0.178044
C12   C     C_R   0.399467 0.865403 0.495252 -0.178044
C13   C     C_R   0.595979 0.216380 0.504504 -0.194650
C14   C     C_R   0.404021 0.783620 0.495496 -0.194651
C15   C     C_R   0.251831 0.461374 0.537431 0.047407
C16   C     C_R   0.748169 0.538626 0.462569 0.047407
C17   C     C_R   0.162378 0.463735 0.535168 -0.271379
C18   C     C_R   0.837622 0.536265 0.464831 -0.271379
C19   C     C_R   0.107088 0.516483 0.483706 0.329847
C20   C     C_R   0.892912 0.483517 0.516293 0.329847
C21   C     C_R   0.144699 0.565529 0.435652 -0.181113
C22   C     C_R   0.855301 0.434471 0.564348 -0.181113
C23   C     C_R   0.511102 0.499261 0.650058 0.865360
C24   C     C_R   0.488898 0.500739 0.349942 0.865361
C25   C     C_R   0.235018 0.561284 0.439724 0.085253
C26   C     C_R   0.764981 0.438715 0.560276 0.085254
C27   C     C_R   0.516243 0.502160 0.734041 -0.148453
C28   C     C_R   0.483757 0.497840 0.265959 -0.148453
C29   C     C_R   0.470582 0.452235 0.773717 0.356606
C30   C     C_R   0.529416 0.547767 0.226283 0.356604
C31   C     C_R   0.467105 0.460669 0.852578 -0.160334
C32   C     C_R   0.532894 0.539334 0.147422 -0.160333
C33   C     C_R   0.510142 0.517651 0.893124 0.092717
C34   C     C_R   0.489858 0.482351 0.106876 0.092718
C35   C     C_R   0.556637 0.566506 0.853996 -0.181944
C36   C     C_R   0.443365 0.433494 0.146004 -0.181944
C37   C     C_R   0.560365 0.559030 0.774721 -0.087580
C38   C     C_R   0.439636 0.440969 0.225278 -0.087579
C39   C     C_2   0.505362 0.529346 0.975930 -0.177438
C40   C     C_2   0.494639 0.470656 0.024070 -0.177437
Cu1   Cu    Cu3+1 0.585060 0.496170 0.503810 0.994884
Cu2   Cu    Cu3+1 0.414940 0.503830 0.496190 0.994884
H1    H     H_    0.706838 0.579467 0.422938 0.188771
H2    H     H_    0.293162 0.420533 0.577061 0.188772
H3    H     H_    0.862872 0.575524 0.426537 0.183006
H4    H     H_    0.137128 0.424476 0.573463 0.183006
H5    H     H_    0.488157 0.412096 0.002573 0.155534
H6    H     H_    0.511843 0.587906 0.997427 0.155534
H7    H     H_    0.589402 0.610944 0.885285 0.150761
H8    H     H_    0.410602 0.389054 0.114714 0.150760
H9    H     H_    0.571251 0.576234 0.118824 0.166760
H10   H     H_    0.428746 0.423771 0.881177 0.166761
H11   H     H_    0.621029 0.740274 0.505324 0.174364
H12   H     H_    0.378971 0.259726 0.494675 0.174364
H13   H     H_    0.613309 0.882199 0.504959 0.161528
H14   H     H_    0.386691 0.117801 0.495040 0.161528
H15   H     H_    0.662429 0.099679 0.507560 0.151476
H16   H     H_    0.337570 0.900321 0.492440 0.151476
H17   H     H_    0.654746 0.243388 0.507120 0.168412
H18   H     H_    0.345254 0.756612 0.492880 0.168412
N1    N     N_2   0.534576 0.014333 0.501688 -0.254079
N2    N     N_2   0.465424 0.985667 0.498312 -0.254079
N3    N     N_R   0.287170 0.509590 0.490460 -0.200915
N4    N     N_R   0.712830 0.490410 0.509540 -0.200915
N5    N     N_2   0.014905 0.522500 0.477911 -0.220925
N6    N     N_2   0.985095 0.477500 0.522089 -0.220925
O1    O     O_R   0.579730 0.382480 0.503570 -0.596988
O2    O     O_R   0.420270 0.617520 0.496430 -0.596987
O3    O     O_R   0.436070 0.388960 0.497130 -0.581431
O4    O     O_R   0.563930 0.611040 0.502870 -0.581431
O5    O     O_R   0.580160 0.496380 0.617190 -0.583722
O6    O     O_R   0.419840 0.503620 0.382810 -0.583722
O7    O     O_R   0.436500 0.502850 0.610750 -0.558140
O8    O     O_R   0.563500 0.497150 0.389250 -0.558141
Cl1   Cl    Cl    0.417486 0.377594 0.726816 -0.629568
Cl2   Cl    Cl    0.582510 0.622409 0.273185 -0.629567
C41   C     C_1   0.090063 0.620310 0.382018 0.266395
N7    N     N_1   0.046400 0.664047 0.339199 -0.246108
C42   C     C_1   0.909937 0.379690 0.617982 0.266395
N8    N     N_1   0.953599 0.335953 0.660802 -0.246107
C43   C     C_1   0.272041 0.612035 0.389520 0.317945
N9    N     N_1   0.300975 0.652990 0.348952 -0.265035
C44   C     C_1   0.727958 0.387965 0.610480 0.317945
N10   N     N_1   0.699025 0.347010 0.651048 -0.265036
C45   C     C_1   0.393939 0.387084 0.264150 0.269650
N11   N     N_1   0.357435 0.343956 0.295372 -0.269966
C46   C     C_1   0.606065 0.612913 0.735850 0.269652
N12   N     N_1   0.642571 0.656039 0.704628 -0.269965

loop_
_geom_bond_atom_site_label_1
_geom_bond_atom_site_label_2
_ccdc_geom_bond_type
C40   H5    S    
C25   C43   S    
C46   N12   T    
C26   C44   S    
C27   C29   A    
Cu1   Cu2   S    
C31   H10   S    
C43   N9    T    
Cu1   O1    S    
C41   N7    T    
C33   C39   S    
C9    N1    S    
C20   N6    S    
C35   C37   A    
C22   C42   S    
C2    O2    A    
C33   C35   A    
C7    C9    A    
C25   N3    A    
C26   N4    A    
C17   C19   A    
Cu1   O8    S    
C35   H7    S    
C31   C33   A    
C23   C27   S    
C34   C36   A    
C3    C13   A    
Cu1   O5    S    
C12   H16   S    
Cu2   O2    S    
C10   N2    S    
C7    H14   S    
C23   O7    A    
C8    H13   S    
C38   C45   S    
C23   O5    A    
C5    H12   S    
C17   H4    S    
C4    C6    A    
C39   C40   D    
C5    C7    A    
C6    C8    A    
C45   N11   T    
Cu2   O3    S    
C1    O3    A    
C1    C3    S    
C32   C34   A    
C2    C4    S    
C32   H9    S    
C30   Cl2   S    
C44   N10   T    
C28   C38   A    
Cu2   O6    S    
C9    C11   A    
C16   H1    S    
C10   C12   A    
C29   Cl1   S    
C16   C18   A    
C12   C14   A    
C34   C40   S    
C6    H11   S    
C18   H3    S    
C36   H8    S    
C24   O6    A    
C15   C17   A    
C21   C25   A    
Cu2   O7    S    
C19   C21   A    
C37   C46   S    
C24   C28   S    
C20   C22   A    
C3    C5    A    
C15   H2    S    
C13   H17   S    
C14   H18   S    
C28   C30   A    
C29   C31   A    
C11   H15   S    
C30   C32   A    
C11   C13   A    
C24   O8    A    
C27   C37   A    
C36   C38   A    
C1    O1    A    
C19   N5    S    
C18   C20   A    
C4    C14   A    
N1    N2    D    
C42   N8    T    
C8    C10   A    
N5    N6    D    
C22   C26   A    
C21   C41   S    
C15   N3    A    
C39   H6    S    
C16   N4    A    
Cu1   N4    S    
C2    O4    A    
Cu2   N3    S    
Cu1   O4    S    
