data_mof_unit_pretest_661.cif
_audit_creation_date              2012-12-10T18:06:50-0500
_audit_creation_method            fapswitch 2.2
_symmetry_space_group_name_H-M    P1
_symmetry_Int_Tables_number       1
_space_group_crystal_system       triclinic
_cell_length_a                    12.636799
_cell_length_b                    13.080521
_cell_length_c                    15.473391
_cell_angle_alpha                 83.855184
_cell_angle_beta                  99.236203
_cell_angle_gamma                 97.463538
_cell_volume                      2493.41274185

loop_
_atom_site_label
_atom_site_type_symbol
_atom_type_description
_atom_site_fract_x
_atom_site_fract_y
_atom_site_fract_z
_atom_type_partial_charge
C1    C     C_R   0.446497 0.307709 0.518206 0.891437
C2    C     C_R   0.684644 0.510605 0.934917 0.169432
C3    C     C_R   0.582733 0.542833 0.898574 0.090852
C4    C     C_R   0.436180 0.515113 0.336041 0.877833
C5    C     C_R   0.750227 0.477921 0.880614 -0.195662
C6    C     C_R   0.712672 0.471145 0.791441 -0.202326
C7    C     C_R   0.546000 0.533180 0.809666 -0.246162
C8    C     C_R   0.737263 0.935024 0.544998 -0.195721
C9    C     C_R   0.596821 0.800587 0.496574 -0.050950
C10   C     C_R   0.308759 0.153763 0.549563 -0.089639
C11   C     C_R   0.279302 0.046148 0.544748 -0.048867
C12   C     C_R   0.465507 0.565074 0.099050 0.094764
C13   C     C_R   0.357577 0.984364 0.534203 -0.250458
C14   C     C_R   0.466887 0.025010 0.535825 0.067010
C15   C     C_R   0.497827 0.128737 0.552307 0.080798
C16   C     C_R   0.557331 0.691801 0.490974 0.852168
C17   C     C_R   0.547358 0.963975 0.525507 0.094143
C18   C     C_R   0.658020 0.999407 0.549413 0.162526
C19   C     C_R   0.687146 0.097270 0.579378 -0.275837
C20   C     C_R   0.608134 0.161659 0.580162 -0.180462
C21   C     C_R   0.520031 0.868160 0.491963 -0.260946
C22   C     C_R   0.706513 0.834547 0.520636 -0.201123
C23   C     C_R   0.371364 0.612384 0.063929 0.167416
C24   C     C_R   0.417348 0.196041 0.542733 -0.208067
C25   C     C_R   0.142285 0.626649 0.636003 -0.270070
C26   C     C_R   0.754567 0.371595 0.402554 -0.161257
C27   C     C_R   0.848091 0.328272 0.395402 0.454548
C28   C     C_R   0.565581 0.489776 0.663614 0.850449
C29   C     C_R   0.945588 0.374450 0.437124 -0.192881
C30   C     C_R   0.950850 0.461926 0.484875 -0.071571
C31   C     C_R   0.853392 0.492248 0.499192 0.230194
C32   C     C_R   0.048409 0.516029 0.523262 -0.033379
C33   C     C_R   0.046215 0.582215 0.589902 0.180127
C34   C     C_R   0.543514 0.555975 0.045163 0.065843
C35   C     C_R   0.948004 0.605307 0.607833 -0.282956
C36   C     C_R   0.852734 0.564145 0.560028 -0.191368
C37   C     C_R   0.148126 0.510614 0.496155 0.055923
C38   C     C_R   0.239223 0.607321 0.613901 0.001306
C39   C     C_R   0.405287 0.540361 0.241803 -0.079126
C40   C     C_R   0.609056 0.496464 0.756365 -0.048513
C41   C     C_R   0.296968 0.626083 0.118806 -0.193671
C42   C     C_R   0.315173 0.592194 0.207960 -0.177732
C43   C     C_R   0.476711 0.523696 0.186322 -0.248334
C44   C     C_2   0.232620 0.218146 0.575435 0.992746
C45   C     C_R   0.516354 0.575353 0.953333 0.070953
C46   C     C_2   0.169162 0.993317 0.552627 0.911374
C47   C     C_2   0.154149 0.480028 0.408168 0.922666
C48   C     C_3   0.755650 0.173944 0.345481 0.084281
C49   C     C_3   0.779946 0.069119 0.324727 -0.734487
C50   C     C_R   0.423078 0.624795 0.919579 -0.219838
C51   C     C_R   0.352910 0.644826 0.974665 -0.225464
C52   C     C_R   0.647668 0.528448 0.080037 -0.222115
C53   C     C_R   0.718039 0.508422 0.025237 -0.222387
H1    H     H_    0.282364 0.682946 0.946845 0.149865
H2    H     H_    0.465585 0.549377 0.781660 0.158734
H3    H     H_    0.944921 0.657904 0.656746 0.152753
H4    H     H_    0.142328 0.675084 0.688627 0.164279
H5    H     H_    0.676302 0.341183 0.370319 0.142159
H6    H     H_    0.015434 0.336704 0.434989 0.233360
H7    H     H_    0.779646 0.587722 0.573463 0.205706
H8    H     H_    0.763579 0.444351 0.750572 0.165035
H9    H     H_    0.796748 0.486426 0.054018 0.160105
H10   H     H_    0.225927 0.664362 0.093096 0.148047
H11   H     H_    0.260348 0.608355 0.250293 0.205605
H12   H     H_    0.829111 0.455019 0.907534 0.143424
H13   H     H_    0.541133 0.477283 0.212271 0.158187
H14   H     H_    0.404249 0.651613 0.851040 0.144630
H15   H     H_    0.677580 0.524271 0.149579 0.158869
H16   H     H_    0.205309 0.313473 0.661665 0.335194
H17   H     H_    0.079236 0.866469 0.599081 0.336192
H18   H     H_    0.195032 0.376343 0.335459 0.337094
H19   H     H_    0.691952 0.201495 0.293185 0.140047
H20   H     H_    0.725368 0.162628 0.409902 0.148521
H21   H     H_    0.843674 0.039814 0.375964 0.276399
H22   H     H_    0.705917 0.012944 0.323375 0.202778
H23   H     H_    0.767527 0.782728 0.523981 0.160950
H24   H     H_    0.807921 0.076036 0.259657 0.255706
H25   H     H_    0.770992 0.124786 0.600637 0.167608
H26   H     H_    0.822097 0.960750 0.563859 0.166832
H27   H     H_    0.437972 0.842763 0.464444 0.157627
H28   H     H_    0.332389 0.902551 0.531229 0.176696
H29   H     H_    0.634025 0.235979 0.605974 0.179526
H30   H     H_    0.314766 0.638599 0.650230 0.141157
N1    N     N_R   0.239390 0.551900 0.544730 -0.145355
N2    N     N_R   0.759950 0.448600 0.455730 -0.145557
O1    O     O_R   0.374950 0.371210 0.521360 -0.541050
O2    O     O_R   0.262507 0.270241 0.651531 -0.799745
O3    O     O_2   0.089003 0.031726 0.515470 -0.588122
O4    O     O_R   0.157588 0.896010 0.599583 -0.824418
O5    O     O_2   0.113281 0.530389 0.343080 -0.659357
O6    O     O_R   0.199167 0.390385 0.399170 -0.756624
O7    O     O_3   0.850531 0.244606 0.347315 -0.586075
O8    O     O_R   0.542050 0.338030 0.492790 -0.626313
O9    O     O_R   0.368720 0.526070 0.390200 -0.595688
O10   O     O_R   0.535820 0.492890 0.361630 -0.612871
O11   O     O_R   0.457950 0.661970 0.507210 -0.617051
O12   O     O_R   0.625050 0.628790 0.478640 -0.628752
O13   O     O_R   0.464180 0.507110 0.638370 -0.610075
O14   O     O_R   0.631280 0.473930 0.609800 -0.647035
O15   O     O_2   0.145414 0.227321 0.530145 -0.585957
Zn1   Zn    Zn3+2 0.388420 0.522150 0.519080 0.987909
Zn2   Zn    Zn3+2 0.611580 0.477850 0.480920 0.921630

loop_
_geom_bond_atom_site_label_1
_geom_bond_atom_site_label_2
_ccdc_geom_bond_type
C31   N2    A    
C20   H29   S    
C38   H30   S    
C27   C29   A    
C44   O15   D    
C41   C42   A    
C19   C20   A    
C7    H2    S    
C46   O4    S    
C12   C23   A    
C26   C27   A    
C6    H8    S    
C9    C16   S    
C12   C43   A    
C3    C7    A    
C26   N2    A    
C30   C31   A    
C9    C22   A    
C28   C40   S    
C13   H28   S    
C18   C19   A    
C29   H6    S    
O9    Zn1   S    
C8    H26   S    
C8    C22   A    
C7    C40   A    
C49   H22   S    
C37   N1    A    
C22   H23   S    
C37   C47   S    
C44   O2    S    
C50   H14   S    
C31   C36   A    
O12   Zn2   S    
H16   O2    S    
O10   Zn2   S    
C13   C14   A    
N1    Zn1   S    
C14   C17   A    
C25   H4    S    
C48   H19   S    
C50   C51   A    
C39   C42   A    
C46   O3    D    
C15   C20   A    
C16   O11   A    
C10   C44   S    
C5    H12   S    
C39   C43   A    
C10   C24   A    
C3    C45   A    
C8    C18   A    
C35   C36   A    
C19   H25   S    
C29   C30   A    
C25   C38   A    
C4    O10   A    
C53   H9    S    
C23   C51   A    
C4    C39   S    
C17   C18   A    
C27   O7    S    
C34   C45   A    
C32   C37   A    
C26   H5    S    
C4    O9    A    
C28   O14   A    
C48   C49   S    
C47   O5    D    
C6    C40   A    
C2    C5    A    
C41   H10   S    
C12   C34   A    
C42   H11   S    
C52   C53   A    
C28   O13   A    
C1    O1    A    
C15   C24   A    
C38   N1    A    
C35   H3    S    
C49   H21   S    
C47   O6    S    
C48   H20   S    
C36   H7    S    
C2    C53   A    
C52   H15   S    
O8    Zn2   S    
O13   Zn1   S    
C34   C52   A    
C23   C41   A    
C51   H1    S    
C32   C33   A    
C2    C3    A    
C30   C32   A    
C11   C13   A    
C9    C21   A    
C5    C6    A    
C45   C50   A    
C43   H13   S    
C21   H27   S    
C33   C35   A    
C49   H24   S    
C16   O12   A    
C17   C21   A    
C10   C11   A    
H17   O4    S    
O14   Zn2   S    
H18   O6    S    
C1    C24   S    
C1    O8    A    
C48   O7    S    
C14   C15   A    
C11   C46   S    
O11   Zn1   S    
O1    Zn1   S    
N2    Zn2   S    
C25   C33   A    
