data_mof_unit_pretest_1597.cif
_audit_creation_date              2013-03-05T16:14:37-0500
_audit_creation_method            fapswitch 2.2
_symmetry_space_group_name_H-M    P1
_symmetry_Int_Tables_number       1
_space_group_crystal_system       triclinic
_cell_length_a                    10.749964
_cell_length_b                    14.254457
_cell_length_c                    13.374171
_cell_angle_alpha                 90.046865
_cell_angle_beta                  89.597206
_cell_angle_gamma                 90.143558
_cell_volume                      2049.3320189

loop_
_atom_site_label
_atom_site_type_symbol
_atom_site_description
_atom_site_fract_x
_atom_site_fract_y
_atom_site_fract_z
_atom_type_partial_charge
O1    O     O_R   0.500000 0.373720 0.576470 -0.609174
O2    O     O_R   0.500000 0.373720 0.423530 -0.611059
C1    C     C_R   0.500039 0.326573 0.499960 0.900359
O3    O     O_R   0.314810 0.499990 0.576450 -0.597334
O4    O     O_R   0.314810 0.499990 0.423550 -0.604757
O5    O     O_R   0.685190 0.499990 0.576450 -0.621768
O6    O     O_R   0.685190 0.499990 0.423550 -0.583319
C2    C     C_R   0.254761 0.500171 0.500440 0.957252
C3    C     C_R   0.745363 0.504201 0.499479 0.956803
Zn1   Zn    Zn3+2 0.500000 0.500010 0.602090 1.029946
Zn2   Zn    Zn3+2 0.500000 0.500010 0.397910 1.054420
O7    O     O_R   0.500000 0.626290 0.576440 -0.574817
O8    O     O_R   0.500000 0.626290 0.423560 -0.577414
C4    C     C_R   0.499151 0.673429 0.500016 1.026708
C5    C     C_3   0.068560 0.479399 0.605902 -0.397546
C6    C     C_3   0.071461 0.431002 0.426933 -0.429086
C7    C     C_3   0.927668 0.469896 0.600546 -0.412450
C8    C     C_3   0.930687 0.439815 0.417008 -0.391665
H1    H     H_    0.093871 0.531191 0.664180 0.266046
H2    H     H_    0.116392 0.434480 0.352023 0.237740
H3    H     H_    0.884271 0.505108 0.666111 0.242997
H4    H     H_    0.907308 0.462404 0.340252 0.262938
H5    H     H_    0.108141 0.411088 0.630501 0.181166
H6    H     H_    0.093979 0.359747 0.455802 0.179923
H7    H     H_    0.901905 0.394412 0.607988 0.187456
H8    H     H_    0.887819 0.369104 0.426585 0.171925
C9    C     C_3   0.077238 0.609969 0.470289 0.335966
C10   C     C_3   0.928510 0.613406 0.480390 0.326419
C11   C     C_3   0.120600 0.506854 0.501081 -0.079978
C12   C     C_3   0.880312 0.508415 0.498088 -0.087317
C13   C     C_1   0.499663 0.225915 0.499889 -0.206285
C14   C     C_1   0.499294 0.141333 0.499870 0.014358
C15   C     C_1   0.498885 0.042259 0.499886 0.048257
C16   C     C_1   0.498633 0.957683 0.499921 0.064130
C17   C     C_1   0.498530 0.858623 0.499972 0.080772
C18   C     C_1   0.498681 0.774058 0.500010 -0.069402
N1    N     N_1   0.500000 0.499980 0.261870 -0.045078
N2    N     N_1   0.500000 0.499980 0.738130 -0.057165
C19   C     C_1   0.499998 0.500000 0.169437 0.153177
C20   C     C_1   0.499999 0.499995 0.830566 0.118642
C21   C     C_1   0.499997 0.500013 0.049527 -0.009447
C22   C     C_1   0.499998 0.500010 0.950478 -0.010839
N3    N     N_R   0.132516 0.684698 0.533907 0.217102
O9    O     O_R   0.108083 0.772195 0.514257 -0.268285
O10   O     O_R   0.208305 0.666998 0.606846 -0.394152
N4    N     N_R   0.120156 0.628707 0.365916 0.219206
O11   O     O_R   0.070938 0.586864 0.289189 -0.359880
O12   O     O_R   0.214679 0.684097 0.349474 -0.324481
N5    N     N_R   0.886152 0.670994 0.567200 0.212688
O13   O     O_R   0.783925 0.719359 0.560858 -0.370489
O14   O     O_R   0.940352 0.667410 0.653859 -0.351329
N6    N     N_R   0.877236 0.658933 0.389528 0.225538
O15   O     O_R   0.816751 0.613399 0.320977 -0.364453
O16   O     O_R   0.899491 0.747666 0.374381 -0.262965

loop_
_geom_bond_atom_site_label_1
_geom_bond_atom_site_label_2
_geom_bond_distance
_ccdc_geom_bond_type
O5    Zn1   2.017727 S    
O4    C2    1.210311 A    
N2    C20   1.236252 T    
N3    O9    1.302593 A    
C5    C7    1.522477 S    
O4    Zn2   2.017727 S    
C8    C12   1.554990 S    
C9    C11   1.598262 S    
Zn2   O8    1.832173 S    
C21   C22   1.324701 T    
O6    Zn2   2.022479 S    
C17   C18   1.205427 T    
C8    H8    1.114346 S    
C6    H2    1.110241 S    
Zn1   N2    1.819423 S    
C7    H7    1.114743 S    
C14   C15   1.412236 S    
O5    C3    1.213378 A    
C10   C12   1.599759 S    
O2    C1    1.223789 A    
C6    H6    1.114677 S    
O8    C4    1.223084 A    
C1    C13   1.434819 S    
C5    H1    1.107975 S    
C7    C12   1.565495 S    
C10   N6    1.488020 S    
Zn1   O7    1.832724 S    
C3    C12   1.451780 S    
C16   C17   1.412048 S    
O2    Zn2   1.832792 S    
C9    N4    1.491199 S    
C6    C8    1.525562 S    
N6    O16   1.302426 A    
C5    C11   1.555711 S    
O6    C3    1.209204 A    
C4    C18   1.434439 S    
N1    C19   1.236221 T    
N4    O12   1.302817 A    
C5    H5    1.114447 S    
C2    C11   1.445569 S    
O3    Zn1   2.022478 S    
C9    N3    1.488020 S    
C9    C10   1.604447 S    
C15   C16   1.205583 T    
N6    O15   1.299956 A    
C19   C21   1.603689 S    
N5    O13   1.302049 A    
C10   N5    1.490640 S    
O3    C2    1.208044 A    
Zn2   N1    1.819422 S    
N4    O11   1.301439 A    
N5    O14   1.301969 A    
C6    C11   1.560209 S    
C8    H4    1.106902 S    
N3    O10   1.300633 A    
C7    H3    1.110487 S    
O1    Zn1   1.832241 S    
C13   C14   1.205677 T    
O7    C4    1.223758 A    
C20   C22   1.603725 S    
O1    C1    1.223752 A    
