data_mof_unit_pretest_265.cif
_audit_creation_date              2013-03-05T16:31:28-0500
_audit_creation_method            fapswitch 2.2
_symmetry_space_group_name_H-M    P1
_symmetry_Int_Tables_number       1
_space_group_crystal_system       triclinic
_cell_length_a                    15.046287
_cell_length_b                    10.86419
_cell_length_c                    9.546883
_cell_angle_alpha                 89.946374
_cell_angle_beta                  89.948043
_cell_angle_gamma                 89.439271
_cell_volume                      1560.51206479

loop_
_atom_site_label
_atom_site_type_symbol
_atom_site_description
_atom_site_fract_x
_atom_site_fract_y
_atom_site_fract_z
_atom_type_partial_charge
O1    O     O_R   0.500000 0.319640 0.618810 -0.572439
O2    O     O_R   0.500010 0.319680 0.381230 -0.533459
C1    C     C_R   0.496701 0.262689 0.499512 0.911272
O3    O     O_R   0.370250 0.499950 0.618800 -0.576615
O4    O     O_R   0.370260 0.499990 0.381220 -0.557895
C2    C     C_R   0.328999 0.500239 0.500079 0.928934
Cu1   Cu    Cu3+1 0.500000 0.499980 0.640670 1.040706
Cu2   Cu    Cu3+1 0.500000 0.500020 0.359330 1.089318
O5    O     O_R   0.499990 0.680320 0.618770 -0.590564
O6    O     O_R   0.500000 0.680360 0.381190 -0.576644
O7    O     O_R   0.629740 0.500010 0.618780 -0.588247
O8    O     O_R   0.629750 0.500050 0.381200 -0.564140
C3    C     C_R   0.498909 0.737076 0.499847 0.907491
C4    C     C_R   0.670801 0.503597 0.499851 0.885967
C5    C     C_R   0.812248 0.606821 0.440357 0.280746
C6    C     C_R   0.766952 0.506801 0.499114 -0.169015
C7    C     C_R   0.812975 0.408737 0.560176 -0.187314
C8    C     C_R   0.905790 0.404859 0.559583 0.004707
C9    C     C_R   0.952566 0.503963 0.498610 0.036717
C10   C     C_R   0.905689 0.604543 0.437876 0.031660
C11   C     C_R   0.952959 0.305338 0.620410 0.305636
C12   C     C_R   0.045593 0.308259 0.625404 -0.149781
C13   C     C_R   0.093038 0.406059 0.566097 -0.055484
C14   C     C_R   0.046324 0.503151 0.499207 -0.002207
C15   C     C_R   0.093070 0.599803 0.433354 0.017177
C16   C     C_R   0.045412 0.697936 0.372627 -0.103393
C17   C     C_R   0.953234 0.700240 0.374834 -0.111923
C18   C     C_R   0.186429 0.406836 0.568972 0.282982
C19   C     C_R   0.232330 0.501516 0.500247 -0.266395
C20   C     C_R   0.186436 0.597431 0.431589 0.257847
H1    H     H_    0.775146 0.336177 0.608869 0.223579
H2    H     H_    0.080196 0.230660 0.672055 0.227694
H3    H     H_    0.078766 0.774684 0.323966 0.215477
C21   C     C_R   0.506364 0.061657 0.617721 -0.037119
C22   C     C_R   0.490952 0.129742 0.496698 -0.134229
C23   C     C_R   0.472543 0.062897 0.371427 0.357420
C24   C     C_R   0.477431 0.933531 0.373028 -0.137273
C25   C     C_R   0.495026 0.869277 0.498224 -0.078450
C26   C     C_R   0.506750 0.937619 0.618793 -0.016682
C27   C     C_3   0.523201 0.927963 0.772877 0.110539
C28   C     C_3   0.525383 0.070624 0.771456 0.131532
H4    H     H_    0.465872 0.888113 0.830195 0.101936
C29   C     C_R   0.559543 0.430236 0.073779 0.270342
N1    N     N_R   0.500570 0.500930 0.147930 -0.224865
C30   C     C_R   0.437070 0.564719 0.074392 -0.007146
H5    H     H_    0.387465 0.618056 0.130159 0.190903
C31   C     C_R   0.436971 0.564553 0.925571 -0.010301
N2    N     N_R   0.500570 0.500890 0.852020 -0.199428
C32   C     C_R   0.559826 0.430864 0.926115 0.224216
C33   C     C_3   0.658575 0.441639 0.919607 -0.493897
C34   C     C_3   0.658697 0.440957 0.078377 0.066560
H6    H     H_    0.682551 0.528200 0.124516 0.181847
N3    N     N_R   0.763801 0.714140 0.394367 0.103912
O9    O     O_R   0.713974 0.709979 0.283369 -0.332133
O10   O     O_R   0.773876 0.818480 0.458901 -0.249899
H7    H     H_    0.464181 0.883649 0.277162 0.202734
N4    N     N_R   0.608253 0.869048 0.808825 0.191462
O11   O     O_R   0.627276 0.848914 0.939770 -0.265214
O12   O     O_R   0.662361 0.828820 0.712382 -0.268289
H8    H     H_    0.470815 0.116253 0.831087 0.148024
N5    N     N_R   0.613227 0.120836 0.802165 0.173271
O13   O     O_R   0.664526 0.161291 0.702772 -0.316780
O14   O     O_R   0.640856 0.124219 0.931064 -0.222757
H9    H     H_    0.387143 0.617644 0.869816 0.154311
H10   H     H_    0.690811 0.359781 0.871108 0.264658
H11   H     H_    0.680288 0.531251 0.875578 0.225559
N6    N     N_R   0.703377 0.332101 0.136467 0.183421
O15   O     O_R   0.789233 0.321174 0.125023 -0.271260
O16   O     O_R   0.660148 0.252692 0.211863 -0.264854
N7    N     N_R   0.908350 0.199229 0.674906 0.137077
O17   O     O_R   0.854898 0.137468 0.594885 -0.242553
O18   O     O_R   0.933932 0.150941 0.793136 -0.259724
N8    N     N_R   0.235100 0.310037 0.638174 0.119179
O19   O     O_R   0.286406 0.236457 0.566456 -0.355230
O20   O     O_R   0.230644 0.298330 0.773626 -0.313848
N9    N     N_R   0.235037 0.693882 0.363796 0.112752
O21   O     O_R   0.287335 0.764031 0.436222 -0.385414
O22   O     O_R   0.228931 0.709387 0.228991 -0.354107
H12   H     H_    0.919656 0.777232 0.325170 0.217874
N10   N     N_R   0.444600 0.122633 0.244497 0.148972
O23   O     O_R   0.476257 0.085524 0.124745 -0.322596
O24   O     O_R   0.375056 0.194818 0.245667 -0.296848

loop_
_geom_bond_atom_site_label_1
_geom_bond_atom_site_label_2
_geom_bond_distance
_ccdc_geom_bond_type
C27   C28   1.550612 S    
C8    C11   1.412265 A    
N8    O19   1.300662 A    
C9    C10   1.418521 A    
C28   N5    1.464791 S    
Cu1   Cu2   2.685920 S    
N3    O9    1.299697 A    
Cu1   O7    1.963073 S    
C16   C17   1.387050 A    
C19   C20   1.406327 A    
C12   H2    1.082255 S    
C5    N3    1.437537 S    
C18   C19   1.406185 A    
N9    O22   1.301007 A    
C21   C22   1.389741 A    
C17   H12   1.082191 S    
O4    C2    1.292962 A    
O7    C4    1.292856 A    
N4    O12   1.301527 A    
C5    C6    1.404492 A    
C8    C9    1.416460 A    
C30   C31   1.420781 A    
N5    O14   1.299926 A    
O5    C3    1.291512 A    
C24   H7    1.083707 S    
C21   C26   1.347551 A    
C22   C23   1.428487 A    
C6    C7    1.392663 A    
C13   C14   1.414048 A    
N7    O17   1.301268 A    
C27   H4    1.112182 S    
C11   C12   1.395339 A    
N8    O20   1.300996 A    
C21   C28   1.499023 S    
O3    Cu1   1.963582 S    
C18   N8    1.436396 S    
C33   C34   1.515770 S    
N3    O10   1.300920 A    
C5    C10   1.406093 A    
N6    O15   1.300601 A    
N9    O21   1.300696 A    
O3    C2    1.292709 A    
C23   N10   1.435437 S    
C31   H9    1.081575 S    
C29   C32   1.409752 A    
C15   C16   1.404130 A    
C30   H5    1.080603 S    
C34   H6    1.108577 S    
O1    C1    1.297866 A    
C29   N1    1.365616 A    
C24   C25   1.407604 A    
C20   N9    1.436846 S    
C16   H3    1.081650 S    
C31   N2    1.368893 A    
C1    C22   1.448067 S    
Cu2   O8    1.963580 S    
C7    C8    1.396754 A    
C34   N6    1.463558 S    
C13   C18   1.405586 A    
C14   C15   1.415966 A    
C33   H11   1.111961 S    
C3    C25   1.436946 S    
N10   O24   1.301531 A    
N2    C32   1.364163 A    
O8    C4    1.291486 A    
C7    H1    1.081258 S    
C4    C6    1.447481 S    
C26   C27   1.495342 S    
N1    C30   1.368707 A    
C15   C20   1.404889 A    
Cu1   O5    1.970175 S    
C23   C24   1.406734 A    
C27   N4    1.466119 S    
O1    Cu1   1.970526 S    
O2    Cu2   1.970175 S    
Cu2   N1    2.018237 S    
C28   H8    1.111604 S    
N10   O23   1.300992 A    
O6    C3    1.290064 A    
O4    Cu2   1.963076 S    
C10   C17   1.402682 A    
C11   N7    1.436488 S    
Cu1   N2    2.017794 S    
O2    C1    1.288483 A    
C29   C34   1.498248 S    
N4    O11   1.300558 A    
C25   C26   1.382703 A    
C9    C14   1.410663 A    
N5    O13   1.301486 A    
C33   H10   1.110168 S    
C2    C19   1.454445 S    
Cu2   O6    1.970526 S    
C32   C33   1.492782 S    
C12   C13   1.404319 A    
N7    O18   1.301210 A    
N6    O16   1.301707 A    
