data_mof_unit_pretest_968.cif
_audit_creation_date              2012-12-10T16:49:29-0500
_audit_creation_method            fapswitch 2.2
_symmetry_space_group_name_H-M    P1
_symmetry_Int_Tables_number       1
_space_group_crystal_system       triclinic
_cell_length_a                    7.748351
_cell_length_b                    8.577782
_cell_length_c                    12.735865
_cell_angle_alpha                 90.589272
_cell_angle_beta                  86.415247
_cell_angle_gamma                 93.342768
_cell_volume                      843.359951287

loop_
_atom_site_label
_atom_site_type_symbol
_atom_type_description
_atom_site_fract_x
_atom_site_fract_y
_atom_site_fract_z
_atom_type_partial_charge
C1    C     C_R   0.454915 0.205322 0.496988 0.999850
C2    C     C_R   0.691813 0.416667 0.138873 -0.198613
C3    C     C_R   0.532752 0.399058 0.871538 -0.084932
C4    C     C_R   0.467249 0.600945 0.128462 -0.084931
C5    C     C_R   0.558971 0.447763 0.975034 0.011722
C6    C     C_R   0.441031 0.552240 0.024966 0.011724
C7    C     C_2   0.431072 0.041962 0.495429 -0.303379
C8    C     C_2   0.568928 0.958038 0.504571 -0.303382
C9    C     C_2   0.417803 0.758848 0.167058 0.377246
C10   C     C_2   0.582197 0.241155 0.832943 0.377252
C11   C     C_2   0.141777 0.663062 0.022928 0.398097
C12   C     C_R   0.545085 0.794678 0.503012 0.999850
C13   C     C_2   0.858227 0.336946 0.977071 0.398097
C14   C     C_R   0.462135 0.497399 0.700040 0.953235
C15   C     C_R   0.537865 0.502602 0.299960 0.953235
C16   C     C_R   0.568942 0.509867 0.187742 -0.085602
C17   C     C_R   0.431059 0.490135 0.812257 -0.085599
C18   C     C_R   0.301125 0.602827 0.969565 -0.016571
C19   C     C_R   0.698878 0.397178 0.030434 -0.016577
C20   C     C_R   0.308189 0.583337 0.861126 -0.198612
H1    H     H_    0.783373 0.361404 0.185334 0.198735
H2    H     H_    0.886211 0.354274 0.893343 0.074414
H3    H     H_    0.216630 0.638600 0.814666 0.198734
H4    H     H_    0.999372 0.615065 0.421687 0.201399
H5    H     H_    0.000628 0.384935 0.578313 0.201399
H6    H     H_    0.300702 0.991255 0.486785 0.178013
H7    H     H_    0.699298 0.008745 0.513215 0.178012
H8    H     H_    0.365126 0.839642 0.114369 0.084441
H9    H     H_    0.634879 0.160362 0.885631 0.084438
H10   H     H_    0.113790 0.645729 0.106656 0.074418
N1    N     N_2   0.054030 0.541640 0.471970 -0.173467
N2    N     N_2   0.945970 0.458360 0.528030 -0.173468
O1    O     O_R   0.609680 0.261530 0.506880 -0.594333
O2    O     O_2   0.554543 0.194515 0.744372 -0.574002
O3    O     O_2   0.037656 0.729315 0.973633 -0.557821
O4    O     O_2   0.962356 0.270704 0.026367 -0.557823
O5    O     O_R   0.390320 0.738470 0.493120 -0.594331
O6    O     O_R   0.323330 0.288220 0.488910 -0.637878
O7    O     O_R   0.676670 0.711780 0.511090 -0.637878
O8    O     O_R   0.619510 0.488830 0.661140 -0.587354
O9    O     O_R   0.380490 0.511170 0.338860 -0.587350
O10   O     O_R   0.333160 0.515520 0.643180 -0.646756
O11   O     O_R   0.666840 0.484480 0.356820 -0.646757
O12   O     O_2   0.445447 0.805483 0.255631 -0.574001
Zn1   Zn    Zn3+2 0.691200 0.482180 0.511990 0.983554
Zn2   Zn    Zn3+2 0.308800 0.517820 0.488010 0.983557

loop_
_geom_bond_atom_site_label_1
_geom_bond_atom_site_label_2
_ccdc_geom_bond_type
C4    C16   A    
O9    Zn2   S    
C11   C18   S    
O7    Zn1   S    
C5    C19   A    
O1    Zn1   S    
N2    Zn1   S    
N1    N2    D    
C14   C17   S    
C20   H3    S    
C8    C12   S    
C14   O10   A    
C2    H1    S    
C11   O3    D    
C4    C9    S    
H4    N1    S    
C1    O1    A    
C7    C8    D    
C10   O2    D    
C3    C10   S    
C1    C7    S    
O11   Zn1   S    
C10   H9    S    
C5    C6    A    
C7    H6    S    
C1    O6    A    
H5    N2    S    
C13   H2    S    
C3    C17   A    
C18   C20   A    
O8    Zn1   S    
C6    C18   A    
O6    Zn2   S    
C13   C19   S    
C15   O11   A    
C15   C16   S    
C17   C20   A    
C2    C16   A    
C15   O9    A    
C13   O4    D    
C4    C6    A    
O10   Zn2   S    
C12   O5    A    
C8    H7    S    
C9    O12   D    
O5    Zn2   S    
C2    C19   A    
C14   O8    A    
C9    H8    S    
C12   O7    A    
C11   H10   S    
C3    C5    A    
N1    Zn2   S    
