data_mof_unit_pretest_947.cif
_audit_creation_date              2012-12-10T16:59:20-0500
_audit_creation_method            fapswitch 2.2
_symmetry_space_group_name_H-M    P1
_symmetry_Int_Tables_number       1
_space_group_crystal_system       triclinic
_cell_length_a                    7.733896
_cell_length_b                    8.559326
_cell_length_c                    27.732612
_cell_angle_alpha                 90.926151
_cell_angle_beta                  86.251881
_cell_angle_gamma                 93.735317
_cell_volume                      1827.86507253

loop_
_atom_site_label
_atom_site_type_symbol
_atom_type_description
_atom_site_fract_x
_atom_site_fract_y
_atom_site_fract_z
_atom_type_partial_charge
C1    C     C_R   0.545948 0.794870 0.498733 0.975416
C2    C     C_R   0.529881 0.654417 0.127527 -0.035909
C3    C     C_R   0.510115 0.496889 0.646396 -0.049364
C4    C     C_R   0.489699 0.504285 0.353619 -0.052663
C5    C     C_R   0.545594 0.646143 0.024849 0.023639
C6    C     C_R   0.428951 0.367821 0.975649 0.023516
C7    C     C_R   0.415068 0.374980 0.026917 0.068124
C8    C     C_R   0.559255 0.639087 0.973573 0.068216
C9    C     C_R   0.476167 0.513410 0.051234 0.070642
C10   C     C_R   0.499810 0.500063 0.949255 0.071064
C11   C     C_R   0.598724 0.782514 0.050797 -0.280131
C12   C     C_R   0.454052 0.205130 0.501269 0.975441
C13   C     C_R   0.375975 0.231337 0.949744 -0.280882
C14   C     C_R   0.593276 0.787364 0.101054 0.136422
C15   C     C_R   0.385421 0.225085 0.899482 0.138343
C16   C     C_R   0.502996 0.499555 0.593920 0.883362
C17   C     C_R   0.496997 0.500562 0.406080 0.883778
C18   C     C_R   0.633267 0.766099 0.945497 -0.234829
C19   C     C_R   0.340641 0.248155 0.055007 -0.234124
C20   C     C_2   0.570227 0.958349 0.498002 -0.373025
C21   C     C_2   0.429774 0.041651 0.502004 -0.372871
C22   C     C_R   0.587202 0.619838 0.821121 0.532446
C23   C     C_R   0.511539 0.493522 0.897944 -0.091319
C24   C     C_R   0.400592 0.389405 0.179248 0.511907
C25   C     C_R   0.462375 0.357521 0.822046 0.530653
C26   C     C_R   0.526580 0.651328 0.178366 0.549581
C27   C     C_R   0.676224 0.478013 0.717133 0.163853
C28   C     C_R   0.634793 0.497744 0.273494 0.152774
C29   C     C_R   0.669248 0.481713 0.667026 -0.265777
C30   C     C_R   0.641629 0.492616 0.323572 -0.257071
C31   C     C_R   0.357811 0.508382 0.676249 -0.210865
C32   C     C_R   0.330589 0.521069 0.333212 -0.213612
C33   C     C_R   0.364581 0.504939 0.726065 -0.154105
C34   C     C_R   0.468328 0.518571 0.102536 -0.090390
C35   C     C_R   0.323609 0.526552 0.283415 -0.143389
C36   C     C_R   0.523016 0.489885 0.746504 0.333509
C37   C     C_R   0.475062 0.515228 0.253616 0.334128
C38   C     C_R   0.581772 0.624706 0.871493 -0.014717
C39   C     C_R   0.399914 0.386737 0.128966 -0.008421
C40   C     C_R   0.643739 0.758731 0.895596 -0.161135
C41   C     C_R   0.333933 0.254170 0.104902 -0.161726
C42   C     C_R   0.452574 0.356751 0.872957 -0.033626
H1    H     H_    0.702800 0.009591 0.494184 0.180496
H2    H     H_    0.277669 0.152863 0.124605 0.193392
H3    H     H_    0.765445 0.479501 0.338721 0.161715
H4    H     H_    0.788078 0.472491 0.644491 0.160908
H5    H     H_    0.878439 0.575680 0.251446 0.195210
H6    H     H_    0.841933 0.378893 0.250150 0.201561
H7    H     H_    0.888792 0.358348 0.725025 0.195037
H8    H     H_    0.923687 0.555171 0.726793 0.193486
H9    H     H_    0.783674 0.954653 0.112619 0.186349
H10   H     H_    0.581716 0.019894 0.114001 0.193246
H11   H     H_    0.194414 0.059123 0.887178 0.186132
H12   H     H_    0.297201 0.990409 0.505822 0.180500
H13   H     H_    0.395123 0.991954 0.887403 0.191968
H14   H     H_    0.645900 0.889795 0.033459 0.139579
H15   H     H_    0.326512 0.124776 0.967119 0.139445
H16   H     H_    0.686218 0.873998 0.960525 0.143301
H17   H     H_    0.285123 0.141237 0.039997 0.143043
H18   H     H_    0.233568 0.519973 0.661209 0.161622
H19   H     H_    0.211564 0.530246 0.355635 0.165042
H20   H     H_    0.014131 0.383327 0.463454 0.191748
H21   H     H_    0.985868 0.616669 0.536547 0.191487
H22   H     H_    0.246795 0.514356 0.748993 0.147048
H23   H     H_    0.200639 0.539548 0.267842 0.136685
H24   H     H_    0.700412 0.859914 0.875906 0.194567
N1    N     N_R   0.526780 0.488236 0.797778 -0.355073
N2    N     N_R   0.465824 0.519284 0.202524 -0.355647
N3    N     N_2   0.950320 0.457960 0.486880 -0.176321
N4    N     N_2   0.049680 0.542040 0.513120 -0.176490
N5    N     N_3   0.789044 0.484483 0.242613 -0.445739
N6    N     N_3   0.837842 0.461862 0.738377 -0.442617
N7    N     N_3   0.654101 0.928958 0.124638 -0.363221
N8    N     N_3   0.325004 0.083279 0.875938 -0.363636
O1    O     O_R   0.389250 0.738570 0.503220 -0.611779
O2    O     O_2   0.339190 0.262407 0.204831 -0.545760
O3    O     O_2   0.584205 0.777753 0.203800 -0.511832
O4    O     O_2   0.407823 0.229970 0.796629 -0.510659
O5    O     O_R   0.610750 0.261430 0.496780 -0.611831
O6    O     O_R   0.678390 0.711630 0.494810 -0.629558
O7    O     O_R   0.321610 0.288370 0.505190 -0.629569
O8    O     O_R   0.355440 0.513440 0.575450 -0.622449
O9    O     O_R   0.644560 0.486560 0.424550 -0.621078
O10   O     O_R   0.644590 0.486500 0.567040 -0.630844
O11   O     O_R   0.355410 0.513500 0.432960 -0.631707
O12   O     O_2   0.650043 0.746277 0.795485 -0.541086
Zn1   Zn    Zn3+2 0.306940 0.517990 0.505620 0.948042
Zn2   Zn    Zn3+2 0.693060 0.482010 0.494380 0.948426

loop_
_geom_bond_atom_site_label_1
_geom_bond_atom_site_label_2
_ccdc_geom_bond_type
C37   N2    S    
C27   C29   A    
C30   H3    S    
H11   N8    S    
C25   N1    A    
C24   C39   A    
C36   N1    S    
C39   C41   A    
C23   C42   A    
C17   O11   A    
C35   C37   A    
C32   H19   S    
C5    C11   A    
C21   H12   S    
C11   C14   A    
C13   H15   S    
C35   H23   S    
O8    Zn1   S    
C22   C38   A    
C12   O5    A    
C16   O10   A    
C33   C36   A    
C3    C29   A    
H8    N6    S    
C18   C40   A    
H13   N8    S    
C18   H16   S    
H7    N6    S    
C31   C33   A    
C2    C34   A    
O9    Zn2   S    
C40   H24   S    
N4    Zn1   S    
O5    Zn2   S    
O11   Zn1   S    
C26   O3    S    
C34   C39   A    
C1    O1    A    
C32   C35   A    
O10   Zn2   S    
H10   N7    S    
C24   O2    S    
C19   H17   S    
C12   C21   S    
C8    C18   A    
C25   O4    S    
H20   N3    S    
C17   O9    A    
C31   H18   S    
C3    C16   S    
C14   N7    S    
C5    C9    A    
H21   N4    S    
C16   O8    A    
C2    C26   A    
C4    C32   A    
C3    C31   A    
H5    N5    S    
O7    Zn1   S    
N3    Zn2   S    
C4    C17   S    
O1    Zn1   S    
C7    C19   A    
C13   C15   A    
C9    C34   A    
C10   C23   A    
C41   H2    S    
C28   N5    S    
H6    N5    S    
C20   H1    S    
C7    C9    A    
C1    C20   S    
H9    N7    S    
C15   C42   A    
C25   C42   A    
C6    C10   A    
C5    C8    A    
C27   N6    S    
C6    C7    A    
C27   C36   A    
C23   C38   A    
C29   H4    S    
C26   N2    A    
C28   C30   A    
O6    Zn2   S    
C6    C13   A    
C38   C40   A    
C28   C37   A    
C33   H22   S    
C12   O7    A    
C22   O12   S    
N3    N4    D    
C2    C14   A    
C22   N1    A    
C24   N2    A    
C15   N8    S    
C20   C21   D    
C8    C10   A    
C1    O6    A    
C4    C30   A    
C11   H14   S    
C19   C41   A    
