data_mof_unit_pretest_150.cif
_audit_creation_date              2013-03-05T15:54:22-0500
_audit_creation_method            fapswitch 2.2
_symmetry_space_group_name_H-M    P1
_symmetry_Int_Tables_number       1
_space_group_crystal_system       triclinic
_cell_length_a                    15.08219
_cell_length_b                    14.880525
_cell_length_c                    15.08241
_cell_angle_alpha                 110.063707
_cell_angle_beta                  109.46977
_cell_angle_gamma                 109.358903
_cell_volume                      2590.1484884

loop_
_atom_site_label
_atom_site_type_symbol
_atom_site_description
_atom_site_fract_x
_atom_site_fract_y
_atom_site_fract_z
_atom_type_partial_charge
C1    C     C_R   0.002166 0.803851 0.096951 -0.135173
H1    H     H_    0.981538 0.830744 0.159459 0.133485
N1    N     N_R   0.995640 0.706130 0.053910 -0.038378
C2    C     C_R   0.778641 0.253321 0.686865 -0.144101
H2    H     H_    0.800856 0.249356 0.625702 0.109908
N2    N     N_R   0.848310 0.293860 0.791110 -0.040785
C3    C     C_R   0.085695 0.587790 0.784940 0.164983
N3    N     N_R   0.054010 0.556790 0.847890 -0.059096
C4    C     C_R   0.699990 0.409153 0.002445 -0.154300
H3    H     H_    0.644947 0.323843 0.972917 0.093324
N4    N     N_R   0.789940 0.443190 0.997130 -0.037520
C5    C     C_R   0.995714 0.404530 0.697023 -0.196402
H4    H     H_    0.963579 0.318517 0.639795 0.112480
N5    N     N_R   0.997630 0.443170 0.791110 -0.048993
C6    C     C_R   0.790273 0.593500 0.091036 -0.089566
H5    H     H_    0.818369 0.679983 0.141150 0.126009
N6    N     N_R   0.846320 0.556810 0.053910 -0.036238
C7    C     C_R   0.685909 0.249212 0.776148 -0.124483
H6    H     H_    0.622244 0.237659 0.796251 0.093119
N7    N     N_R   0.791080 0.293860 0.847890 -0.041986
C8    C     C_R   0.095326 0.807357 0.009932 -0.138121
H7    H     H_    0.161916 0.841544 0.997816 0.108944
N8    N     N_R   0.052880 0.706130 0.997130 -0.045311
C9    C     C_R   0.064710 0.869828 0.071333 0.063102
C10   C     C_R   0.676077 0.223793 0.674200 0.069185
C11   C     C_R   0.048140 0.493132 0.690313 0.017992
C12   C     C_R   0.698963 0.502158 0.062307 -0.019608
C13   C     C_R   0.003005 0.592154 0.302900 0.337039
N9    N     N_R   0.002370 0.556830 0.208890 -0.086446
C14   C     C_R   0.224889 0.408893 0.957193 -0.141538
H8    H     H_    0.206170 0.326464 0.905574 0.084874
N10   N     N_R   0.153680 0.443190 0.946090 -0.031465
C15   C     C_R   0.300022 0.803259 0.209306 -0.157322
H9    H     H_    0.347532 0.832188 0.175007 0.102134
N11   N     N_R   0.208920 0.706140 0.152110 -0.043576
C16   C     C_R   0.972553 0.250702 0.064443 -0.145411
H10   H     H_    0.946094 0.248321 0.121765 0.110605
N12   N     N_R   0.947120 0.293870 0.002870 -0.039266
C17   C     C_R   0.056645 0.239557 0.967198 -0.114930
H11   H     H_    0.099218 0.214956 0.928139 0.090533
N13   N     N_R   0.004360 0.293870 0.946090 -0.040614
C18   C     C_R   0.213008 0.803814 0.302905 -0.111778
H12   H     H_    0.186237 0.833719 0.358579 0.160631
N14   N     N_R   0.151690 0.706140 0.208890 -0.041000
C19   C     C_R   0.910198 0.408618 0.210202 -0.235499
H13   H     H_    0.857015 0.323559 0.183537 0.124382
N15   N     N_R   0.945990 0.443210 0.152110 -0.054584
C20   C     C_R   0.315348 0.594107 0.057821 -0.163739
H14   H     H_    0.377468 0.680397 0.105559 0.096286
N16   N     N_R   0.210060 0.556810 0.002870 -0.041010
Ni1   Ni    Ni4+2 0.999010 0.630300 0.130220 0.268743
Ni2   Ni    Ni4+2 0.000990 0.369700 0.869780 0.209423
Ni3   Ni    Ni4+2 0.130280 0.630280 0.000000 0.197650
Ni4   Ni    Ni4+2 0.869720 0.369720 0.000000 0.206815
C21   C     C_R   0.945527 0.500580 0.304845 -0.064301
C22   C     C_R   0.326748 0.501760 0.033072 0.008422
C23   C     C_R   0.305326 0.866769 0.304167 0.055052
C24   C     C_R   0.042168 0.216768 0.045292 0.064439
C25   C     C_3   0.530195 0.399934 0.061722 -0.399956
H15   H     H_    0.576353 0.398529 0.135745 0.156108
H16   H     H_    0.503247 0.322014 0.988728 0.151778
C26   C     C_3   0.428236 0.402484 0.057879 -0.404054
H17   H     H_    0.355856 0.322676 0.987398 0.146488
H18   H     H_    0.426980 0.408610 0.133074 0.159908
H19   H     H_    0.676506 0.609219 0.239709 0.173941
H20   H     H_    0.523443 0.617177 0.226785 0.161519
C27   C     C_3   0.632656 0.608173 0.163284 -0.379993
C28   C     C_3   0.539071 0.500581 0.956332 -0.395058
C29   C     C_3   0.602743 0.502774 0.062276 0.386313
H21   H     H_    0.589322 0.575428 0.957047 0.156293
H22   H     H_    0.519035 0.426757 0.883140 0.157628
C30   C     C_3   0.427647 0.503072 0.048285 0.400496
C31   C     C_3   0.528787 0.610131 0.153065 -0.414621
C32   C     C_3   0.434341 0.497274 0.946406 -0.403069
H23   H     H_    0.363774 0.419589 0.870700 0.156245
H24   H     H_    0.431817 0.567971 0.937777 0.152036
H25   H     H_    0.686439 0.684986 0.169605 0.152830
H26   H     H_    0.534439 0.685090 0.149520 0.153667
C33   C     C_R   0.574334 0.123090 0.470835 0.152687
C34   C     C_R   0.575630 0.167662 0.569963 0.031299
C35   C     C_R   0.474841 0.138617 0.565781 -0.200021
H27   H     H_    0.470498 0.177093 0.638250 0.127964
C36   C     C_R   0.379845 0.046007 0.471608 -0.197977
H28   H     H_    0.305863 0.016760 0.475017 0.143675
C37   C     C_R   0.386206 0.983835 0.381889 0.033447
C38   C     C_R   0.480520 0.032706 0.377828 0.167866
C39   C     C_3   0.541653 0.983806 0.338744 -0.518866
C40   C     C_3   0.644250 0.081913 0.440666 -0.517174
H29   H     H_    0.525334 0.904504 0.337142 0.201415
H30   H     H_    0.535713 0.982811 0.262883 0.189574
H31   H     H_    0.685334 0.057361 0.496381 0.203996
H32   H     H_    0.697741 0.136835 0.423353 0.190871
C41   C     C_R   0.069824 0.520439 0.467555 0.133134
C42   C     C_R   0.967164 0.498670 0.401525 0.115293
C43   C     C_R   0.885648 0.465933 0.427391 -0.178081
H33   H     H_    0.804009 0.446186 0.375641 0.129875
C44   C     C_R   0.911994 0.460872 0.522788 -0.193340
H34   H     H_    0.850869 0.439634 0.546194 0.140275
C45   C     C_R   0.018589 0.486112 0.588745 0.004427
C46   C     C_R   0.094142 0.512403 0.556879 0.092708
C47   C     C_3   0.208997 0.544458 0.585385 -0.078621
C48   C     C_3   0.180612 0.553744 0.481621 -0.549550
H35   H     H_    0.268494 0.626013 0.661955 0.129632
H36   H     H_    0.223240 0.640181 0.499756 0.195525
H37   H     H_    0.180223 0.491975 0.414072 0.193252
C49   C     C_R   0.055828 0.037828 0.164225 0.167276
C50   C     C_R   0.102491 0.987685 0.113183 0.034588
C51   C     C_R   0.169497 0.047517 0.083626 -0.195905
H38   H     H_    0.215583 0.018253 0.052724 0.124147
C52   C     C_R   0.162168 0.135838 0.075234 -0.202819
H39   H     H_    0.203164 0.171445 0.038909 0.125241
C53   C     C_R   0.088286 0.163752 0.096804 0.033089
C54   C     C_R   0.048752 0.125034 0.156111 0.161351
C55   C     C_3   0.939361 0.085662 0.147456 -0.528100
C56   C     C_3   0.947105 0.990415 0.156155 -0.516693
H40   H     H_    0.941515 0.143687 0.219306 0.190387
H41   H     H_    0.872462 0.057747 0.066373 0.202480
H42   H     H_    0.953648 0.993508 0.232899 0.198876
H43   H     H_    0.884515 0.909443 0.079917 0.198734
C57   C     C_3   0.162293 0.703089 0.816998 -0.434648
C58   C     C_3   0.273896 0.750573 0.914609 -0.265002
C59   C     C_3   0.352317 0.867993 0.948566 -0.945461
H44   H     H_    0.365415 0.868354 0.880417 0.268834
H45   H     H_    0.319661 0.923486 0.971780 0.258067
H46   H     H_    0.431830 0.900190 0.020075 0.245288
H47   H     H_    0.265230 0.751740 0.984967 0.197734
H48   H     H_    0.308965 0.697099 0.892658 0.192973
H49   H     H_    0.173704 0.702167 0.747786 0.197171
H50   H     H_    0.125212 0.755246 0.832481 0.190629
C60   C     C_3   0.238088 0.453630 0.583095 -0.348096
C61   C     C_3   0.147976 0.334328 0.490753 -0.225507
C62   C     C_3   0.187251 0.252266 0.491820 -0.934789
H51   H     H_    0.257572 0.271811 0.478161 0.263916
H52   H     H_    0.211730 0.255164 0.571302 0.261035
H53   H     H_    0.120548 0.167108 0.425474 0.256354
H54   H     H_    0.075780 0.310374 0.501296 0.193845
H55   H     H_    0.122407 0.327588 0.409636 0.194066
H56   H     H_    0.312695 0.474067 0.576584 0.191623
H57   H     H_    0.258582 0.457787 0.662912 0.171279
N17   N     N_R   0.022104 0.700259 0.367416 0.214560
O1    O     O_R   0.042978 0.735673 0.467749 -0.420219
O2    O     O_R   0.000845 0.755607 0.321087 -0.475102

loop_
_geom_bond_atom_site_label_1
_geom_bond_atom_site_label_2
_geom_bond_distance
_ccdc_geom_bond_type
C39   C40   1.505194 S    
C30   C32   1.548201 S    
C41   C42   1.382854 A    
N11   Ni3   1.861681 S    
C10   C34   1.461776 S    
N1    N8    1.404109 A    
C43   H33   1.083387 S    
C13   N17   1.431620 S    
N6    Ni1   1.877190 S    
C2    C10   1.384653 A    
C3    N3    1.341427 A    
C17   N13   1.344659 A    
C19   H13   1.081564 S    
C13   N9    1.327797 A    
C47   C48   1.546813 S    
C3    C11   1.376458 A    
C32   H24   1.114580 S    
N9    N15   1.372218 A    
C24   C53   1.460770 S    
C16   H10   1.072194 S    
N17   O2    1.299993 A    
C7    H6    1.078831 S    
C16   C24   1.376371 A    
C28   H22   1.114536 S    
C14   H8    1.076569 S    
C49   C50   1.399966 A    
C28   C32   1.518424 S    
C6    H5    1.079156 S    
C44   H34   1.083848 S    
C51   H38   1.080443 S    
C48   H37   1.110303 S    
C6    N6    1.318293 A    
C1    H1    1.079330 S    
C52   H39   1.082128 S    
N10   Ni2   1.877187 S    
C26   H18   1.113287 S    
C35   C36   1.400251 A    
N5    Ni2   1.868788 S    
C45   C46   1.371524 A    
C23   C37   1.460693 S    
C28   C29   1.548252 S    
H19   C27   1.113096 S    
C27   H25   1.110213 S    
C15   C23   1.375636 A    
C50   C51   1.410271 A    
C27   C31   1.533341 S    
C4    H3    1.079816 S    
N13   Ni2   1.868319 S    
C7    N7    1.338729 A    
C12   C29   1.454126 S    
C11   C45   1.400161 S    
C47   C60   1.546492 S    
C20   N16   1.318849 A    
C25   H15   1.113128 S    
C47   H35   1.112330 S    
C8    H7    1.071566 S    
C7    C10   1.393234 A    
C18   N14   1.341280 A    
C21   C42   1.396757 S    
C60   H57   1.112105 S    
C18   C23   1.386353 A    
C33   C40   1.500455 S    
C44   C45   1.411564 A    
C13   C21   1.367650 A    
N8    Ni3   1.874006 S    
C19   N15   1.328380 A    
C25   H16   1.111349 S    
N16   Ni3   1.874786 S    
C32   H23   1.114189 S    
C49   C54   1.379275 A    
C57   H50   1.104603 S    
C40   H32   1.112088 S    
N17   O1    1.300796 A    
N12   N13   1.404110 A    
N7    Ni4   1.861682 S    
C61   H54   1.111298 S    
C17   H11   1.073952 S    
N1    Ni1   1.868320 S    
C38   C39   1.496609 S    
C34   C35   1.408313 A    
C22   C30   1.453728 S    
C37   C38   1.399594 A    
C17   C24   1.395131 A    
C14   C22   1.383798 A    
C35   H27   1.081651 S    
C5    C11   1.351846 A    
C1    N1    1.326826 A    
C41   C48   1.491699 S    
C26   H17   1.110320 S    
C61   H55   1.109607 S    
C6    C12   1.374375 A    
C36   H28   1.081091 S    
N12   Ni4   1.874005 S    
C40   H31   1.112279 S    
C31   H26   1.111402 S    
C56   H42   1.111728 S    
C43   C44   1.395291 A    
C15   H9    1.077851 S    
C26   C30   1.555009 S    
C9    C50   1.461844 S    
C48   H36   1.111608 S    
N11   N14   1.403986 A    
C4    N4    1.322209 A    
C41   C46   1.331926 A    
N10   N16   1.372216 A    
C58   C59   1.525215 S    
N4    Ni4   1.874786 S    
C25   C29   1.553772 S    
N15   Ni4   1.862201 S    
N14   Ni1   1.876452 S    
C2    N2    1.329550 A    
C20   H14   1.078597 S    
C36   C37   1.408050 A    
C5    N5    1.321735 A    
C56   H43   1.112121 S    
C8    N8    1.339708 A    
C8    C9    1.383467 A    
C18   H12   1.074659 S    
C59   H45   1.110531 S    
C61   C62   1.526101 S    
C60   H56   1.111574 S    
C57   C58   1.531573 S    
C4    C12   1.377306 A    
C54   C55   1.498489 S    
N9    Ni1   1.868788 S    
C27   C29   1.554859 S    
C20   C22   1.380107 A    
N4    N6    1.372216 A    
C25   C26   1.533060 S    
N3    N5    1.372216 A    
C3    C57   1.502145 S    
C30   C31   1.554604 S    
N3    Ni3   1.862202 S    
C55   H40   1.112137 S    
C57   H49   1.109506 S    
C58   H48   1.112442 S    
C55   C56   1.505589 S    
N2    N7    1.403987 A    
C49   C56   1.497498 S    
C59   H46   1.110513 S    
C39   H29   1.112488 S    
C60   C61   1.542917 S    
C58   H47   1.106696 S    
C14   N10   1.320649 A    
H20   C31   1.113146 S    
C62   H53   1.110364 S    
C16   N12   1.325663 A    
C46   C47   1.492688 S    
C15   N11   1.326143 A    
C51   C52   1.398802 A    
C62   H51   1.110925 S    
C53   C54   1.403199 A    
C42   C43   1.397892 A    
C52   C53   1.405645 A    
C55   H41   1.112289 S    
C33   C34   1.402540 A    
C2    H2    1.071698 S    
C5    H4    1.081654 S    
C19   C21   1.365079 A    
C1    C9    1.375589 A    
C62   H52   1.110933 S    
C39   H30   1.111994 S    
C28   H21   1.114308 S    
N2    Ni2   1.876452 S    
C59   H44   1.110848 S    
C33   C38   1.378203 A    
