data_mof_unit_pretest_511.cif
_audit_creation_date              2012-12-11T14:08:25-0500
_audit_creation_method            fapswitch 2.2
_symmetry_space_group_name_H-M    P1
_symmetry_Int_Tables_number       1
_space_group_crystal_system       triclinic
_cell_length_a                    28.038856
_cell_length_b                    7.192686
_cell_length_c                    17.179194
_cell_angle_alpha                 90.001211
_cell_angle_beta                  100.968618
_cell_angle_gamma                 89.99929
_cell_volume                      3401.3155296

loop_
_atom_site_label
_atom_site_type_symbol
_atom_type_description
_atom_site_fract_x
_atom_site_fract_y
_atom_site_fract_z
_atom_type_partial_charge
O1    O     O_R   0.000700 0.436510 0.857920 -0.534231
O2    O     O_R   0.999300 0.563490 0.142080 -0.534582
O3    O     O_R   0.999300 0.936510 0.642080 -0.534582
O4    O     O_R   0.000700 0.063490 0.357920 -0.534232
O5    O     O_R   0.930080 0.766380 0.721890 -0.537949
O6    O     O_R   0.069920 0.233620 0.278110 -0.537351
O7    O     O_R   0.069920 0.266380 0.778110 -0.537351
O8    O     O_R   0.930080 0.733620 0.221890 -0.537948
C1    C     C_R   0.910585 0.598429 0.707970 0.694653
C2    C     C_R   0.089466 0.402313 0.291169 0.694606
C3    C     C_R   0.089466 0.097686 0.791162 0.694613
C4    C     C_R   0.910586 0.901570 0.207960 0.694645
O9    O     O_R   0.996180 0.766230 0.862310 -0.543894
O10   O     O_R   0.003820 0.233770 0.137690 -0.543919
O11   O     O_R   0.003820 0.266230 0.637690 -0.543919
O12   O     O_R   0.996180 0.733770 0.362310 -0.543895
O13   O     O_R   0.065870 0.936460 0.783500 -0.532635
O14   O     O_R   0.934130 0.063540 0.216500 -0.531273
O15   O     O_R   0.934130 0.436460 0.716500 -0.531280
O16   O     O_R   0.065870 0.563540 0.283500 -0.532638
C5    C     C_R   0.998474 0.596499 0.894499 0.778814
C6    C     C_R   0.001534 0.403503 0.105504 0.781242
C7    C     C_R   0.001534 0.096495 0.605505 0.781220
C8    C     C_R   0.998474 0.903503 0.394498 0.778841
O17   O     O_3   0.022790 0.603020 0.723980 -0.378345
O18   O     O_3   0.977210 0.396980 0.276020 -0.377225
O19   O     O_3   0.977210 0.103020 0.776020 -0.377230
O20   O     O_3   0.022790 0.896980 0.223980 -0.378350
V1    V     V_3+5 0.995770 0.877900 0.754830 1.459716
V2    V     V_3+5 0.004230 0.122100 0.245170 1.460950
V3    V     V_3+5 0.004230 0.377900 0.745170 1.460940
V4    V     V_3+5 0.995770 0.622100 0.254830 1.459718
C9    C     C_2   0.001724 0.082692 0.519515 -0.315502
C10   C     C_2   0.998277 0.917307 0.480487 -0.316835
C11   C     C_2   0.998277 0.582694 0.980488 -0.316842
C12   C     C_2   0.001724 0.417306 0.019514 -0.315497
H1    H     H_    0.004553 0.211538 0.487731 0.149297
H2    H     H_    0.995446 0.788463 0.512271 0.149350
H3    H     H_    0.995446 0.711539 0.012275 0.149349
H4    H     H_    0.004553 0.288460 0.987727 0.149295
C13   C     C_R   0.684445 0.007483 0.034505 0.597342
C14   C     C_R   0.315225 0.997804 0.968213 0.595541
C15   C     C_R   0.315212 0.502149 0.468352 0.595564
C16   C     C_R   0.684436 0.492407 0.534669 0.597307
O21   O     O_2   0.715509 0.070076 0.989306 -0.508378
O22   O     O_2   0.284303 0.990054 0.019493 -0.505356
O23   O     O_2   0.284288 0.509878 0.519627 -0.505341
O24   O     O_2   0.715499 0.429796 0.489469 -0.508402
N1    N     N_R   0.702239 0.938024 0.108474 -0.562544
N2    N     N_R   0.297357 0.021905 0.888935 -0.561391
N3    N     N_R   0.297349 0.478108 0.389068 -0.561393
N4    N     N_R   0.702231 0.561907 0.608630 -0.562535
C17   C     C_R   0.671598 0.871760 0.155292 0.608026
C18   C     C_R   0.327980 0.027207 0.835594 0.606337
C19   C     C_R   0.327976 0.472821 0.335734 0.606333
C20   C     C_R   0.671590 0.628174 0.655450 0.608024
C21   C     C_R   0.780276 0.078143 0.175530 -0.017884
C22   C     C_R   0.217417 0.900354 0.820226 -0.015461
C23   C     C_R   0.217417 0.599645 0.320302 -0.015456
C24   C     C_R   0.780283 0.421814 0.675629 -0.017874
C25   C     C_R   0.831018 0.067537 0.198260 -0.201346
C26   C     C_R   0.167030 0.922081 0.797228 -0.198061
C27   C     C_R   0.167034 0.577899 0.297263 -0.198066
C28   C     C_R   0.831027 0.432431 0.698315 -0.201357
C29   C     C_R   0.829819 0.758040 0.140906 -0.085107
C30   C     C_R   0.172146 0.229496 0.856933 -0.084842
C31   C     C_R   0.172134 0.270535 0.357015 -0.084862
C32   C     C_R   0.829802 0.741954 0.640991 -0.085099
C33   C     C_R   0.779176 0.769698 0.118693 -0.104067
C34   C     C_R   0.222609 0.206936 0.879654 -0.091331
C35   C     C_R   0.222595 0.293112 0.379777 -0.091347
C36   C     C_R   0.779156 0.730286 0.618825 -0.104045
C37   C     C_R   0.754136 0.928102 0.135709 0.332378
C38   C     C_R   0.245585 0.043481 0.861796 0.324038
C39   C     C_R   0.245577 0.456548 0.361915 0.324010
C40   C     C_R   0.754128 0.571865 0.635849 0.332375
C41   C     C_R   0.601766 0.949570 0.052703 -0.045228
C42   C     C_R   0.397733 0.988560 0.943124 -0.045516
C43   C     C_R   0.397725 0.511368 0.443280 -0.045536
C44   C     C_R   0.601757 0.550297 0.552875 -0.045209
C45   C     C_R   0.634006 0.013447 0.005193 -0.045177
C46   C     C_R   0.365613 0.980503 0.996616 -0.046257
C47   C     C_R   0.365601 0.519406 0.496766 -0.046248
C48   C     C_R   0.633997 0.486421 0.505361 -0.045179
C49   C     C_R   0.615460 0.084896 0.930044 -0.150438
C50   C     C_R   0.384288 0.960068 0.077471 -0.153364
C51   C     C_R   0.384272 0.539765 0.577627 -0.153375
C52   C     C_R   0.615451 0.414944 0.430217 -0.150427
C53   C     C_R   0.620843 0.876518 0.128357 -0.040223
C54   C     C_R   0.378580 0.009284 0.861592 -0.036529
C55   C     C_R   0.378576 0.490703 0.361743 -0.036551
C56   C     C_R   0.620835 0.623359 0.628527 -0.040212
C57   C     C_R   0.856620 0.908105 0.181831 -0.097619
C58   C     C_R   0.143489 0.085504 0.815151 -0.099877
C59   C     C_R   0.143487 0.414494 0.315189 -0.099856
C60   C     C_R   0.856617 0.591883 0.681880 -0.097634
H5    H     H_    0.758873 0.655959 0.086707 0.140514
H6    H     H_    0.244349 0.316162 0.912471 0.142697
H7    H     H_    0.244327 0.183906 0.412623 0.142697
H8    H     H_    0.758843 0.844021 0.586862 0.140530
H9    H     H_    0.640088 0.140913 0.894276 0.183386
H10   H     H_    0.359820 0.961195 0.119421 0.186900
H11   H     H_    0.359802 0.538619 0.619572 0.186917
H12   H     H_    0.640079 0.358915 0.394451 0.183370
C61   C     C_R   0.480790 0.999702 0.916421 0.039127
C62   C     C_R   0.518608 0.906623 0.076124 0.040573
C63   C     C_R   0.518597 0.593191 0.576305 0.040637
C64   C     C_R   0.480784 0.500182 0.416590 0.039055
C65   C     C_R   0.467610 0.940326 0.052541 -0.007030
C66   C     C_R   0.531918 0.015781 0.945424 -0.007168
C67   C     C_R   0.531910 0.484072 0.445598 -0.007168
C68   C     C_R   0.467599 0.559493 0.552713 -0.007021
C69   C     C_R   0.448888 0.976344 0.970934 0.068956
C70   C     C_R   0.550585 0.957915 0.024623 0.069367
C71   C     C_R   0.550576 0.541932 0.524798 0.069367
C72   C     C_R   0.448880 0.523536 0.471100 0.068934
C73   C     C_R   0.460247 0.999182 0.834636 -0.126630
C74   C     C_R   0.538892 0.816776 0.148012 -0.133706
C75   C     C_R   0.538881 0.682991 0.648207 -0.133622
C76   C     C_R   0.460247 0.500746 0.334803 -0.126635
C77   C     C_R   0.410230 0.007783 0.807806 -0.106200
C78   C     C_R   0.588948 0.805056 0.174275 -0.103284
C79   C     C_R   0.588938 0.694751 0.674460 -0.103302
C80   C     C_R   0.410231 0.492203 0.307964 -0.106137
O25   O     O_2   0.309630 0.051487 0.757781 -0.505851
O26   O     O_2   0.690114 0.801705 0.227569 -0.500048
O27   O     O_2   0.690107 0.698285 0.727717 -0.500048
O28   O     O_2   0.309631 0.448585 0.257916 -0.505858
C81   C     C_R   0.565539 0.089155 0.900091 -0.066094
C82   C     C_R   0.434191 0.942828 0.106118 -0.068345
C83   C     C_R   0.434176 0.556950 0.606285 -0.068368
C84   C     C_R   0.565530 0.410680 0.400265 -0.066061
H13   H     H_    0.146065 0.810025 0.765126 0.149476
H14   H     H_    0.850535 0.183873 0.229483 0.148971
H15   H     H_    0.850557 0.316081 0.729504 0.148989
H16   H     H_    0.146075 0.689925 0.265125 0.149444
H17   H     H_    0.396478 0.011883 0.744466 0.165508
H18   H     H_    0.602525 0.738192 0.230659 0.168599
H19   H     H_    0.602514 0.761570 0.730855 0.168563
H20   H     H_    0.396482 0.488140 0.244622 0.165531
H21   H     H_    0.482120 0.983332 0.789856 0.129467
H22   H     H_    0.516708 0.746014 0.183450 0.127045
H23   H     H_    0.516697 0.753666 0.683671 0.126985
H24   H     H_    0.482126 0.516583 0.290030 0.129549
C85   C     C_1   0.852957 0.592981 0.117655 0.331813
N5    N     N_1   0.871368 0.460624 0.098901 -0.351295
C86   C     C_1   0.150953 0.398439 0.880579 0.330782
N6    N     N_1   0.134049 0.533855 0.899655 -0.351718
C87   C     C_1   0.150934 0.101602 0.380656 0.330767
N7    N     N_1   0.134025 0.966194 0.399726 -0.351719
C88   C     C_1   0.852928 0.907002 0.617709 0.331829
N8    N     N_1   0.871331 0.039343 0.598926 -0.351282
C89   C     C_1   0.239596 0.728687 0.802081 0.352514
N9    N     N_1   0.257451 0.591230 0.787443 -0.316763
C90   C     C_1   0.755435 0.244033 0.193124 0.336772
N10   N     N_1   0.735445 0.376990 0.207235 -0.296266
C91   C     C_1   0.755456 0.255899 0.693222 0.336780
N11   N     N_1   0.735476 0.122921 0.707332 -0.296282
C92   C     C_1   0.239602 0.771293 0.302147 0.352546
N12   N     N_1   0.257461 0.908732 0.287500 -0.316726
C93   C     C_1   0.551511 0.189070 0.826307 0.312674
N13   N     N_1   0.541043 0.268875 0.767020 -0.330121
C94   C     C_1   0.448585 0.949943 0.191474 0.319242
N14   N     N_1   0.459398 0.955437 0.259916 -0.326510
C95   C     C_1   0.448565 0.549750 0.691640 0.319276
N15   N     N_1   0.459374 0.544187 0.760081 -0.326554
C96   C     C_1   0.551501 0.310745 0.326485 0.312654
N16   N     N_1   0.541032 0.230924 0.267201 -0.330008

loop_
_geom_bond_atom_site_label_1
_geom_bond_atom_site_label_2
_ccdc_geom_bond_type
C82   C94   S    
O17   V3    S    
C47   C51   A    
C61   C66   A    
N1    C17   A    
O1    C5    A    
C95   N15   T    
C79   H19   S    
C31   C87   S    
O13   V1    S    
C63   C68   A    
C64   C76   A    
O3    C7    A    
C86   N6    T    
C14   C46   A    
C84   C96   S    
C44   C48   A    
O15   V3    S    
C36   H8    S    
C93   N13   T    
O4    V2    S    
C42   C54   A    
O7    C3    A    
C21   C90   S    
C41   C53   A    
C32   C60   A    
C62   C70   A    
C26   H13   S    
O9    V1    S    
N3    C39   S    
C18   C54   A    
N2    C38   S    
C74   C78   A    
O4    C8    A    
C25   C57   A    
C31   C35   A    
O19   V1    S    
C53   C78   A    
C21   C37   A    
C27   C59   A    
C15   C47   A    
O1    V3    S    
C75   H23   S    
C66   C81   A    
O2    V4    S    
C14   O22   S    
C20   O27   S    
C77   H17   S    
O3    V1    S    
C73   C77   A    
C34   C38   A    
C19   C55   A    
C49   C81   A    
C23   C92   S    
C1    O15   A    
C91   N11   T    
C11   C12   D    
C2    O16   A    
C7    C9    S    
C76   H24   S    
O2    C6    A    
C88   N8    T    
C33   C37   A    
O14   V2    S    
C66   C70   A    
C43   C55   A    
C65   C69   A    
C30   C58   A    
C16   N4    A    
O11   C7    A    
C28   H15   S    
O12   C8    A    
C43   C72   A    
C62   C74   A    
C31   C59   A    
C61   C73   A    
O10   V2    S    
C63   C75   A    
C52   H12   S    
C25   H14   S    
C85   N5    T    
O5    V1    S    
C73   H21   S    
C18   O25   S    
C90   N10   T    
O7    V3    S    
O9    C5    A    
O8    V4    S    
C12   H4    S    
C24   C91   S    
C78   H18   S    
C56   C79   A    
C96   N16   T    
O18   V4    S    
C50   C82   A    
C16   C48   A    
C46   C50   A    
C35   H7    S    
C24   C40   A    
C8    C10   S    
C76   C80   A    
C32   C36   A    
C44   C56   A    
C11   H3    S    
O5    C1    A    
C22   C89   S    
C42   C46   A    
C92   N12   T    
C44   C71   A    
C41   C45   A    
O8    C4    A    
C13   C45   A    
C9    C10   D    
C81   C93   S    
C36   C40   A    
N2    C18   A    
O11   V3    S    
C1    C60   S    
C63   C71   A    
C30   C86   S    
C51   C83   A    
C22   C26   A    
C14   N2    A    
C51   H11   S    
C3    C58   S    
O6    V2    S    
C55   C80   A    
C26   C58   A    
C17   C53   A    
C54   C77   A    
N1    C37   S    
C4    C57   S    
C42   C69   A    
C52   C84   A    
C29   C85   S    
C41   C70   A    
C50   H10   S    
C23   C39   A    
C68   C72   A    
C49   H9    S    
C22   C38   A    
O16   V4    S    
C61   C69   A    
C3    O13   A    
C10   H2    S    
C80   H20   S    
C48   C52   A    
C74   H22   S    
O6    C2    A    
C21   C25   A    
C5    C11   S    
C75   C79   A    
O12   V4    S    
C13   N1    A    
C6    C12   S    
C23   C27   A    
C64   C67   A    
N4    C40   S    
C24   C28   A    
C27   H16   S    
C64   C72   A    
O20   V2    S    
C32   C88   S    
C87   N7    T    
C35   C39   A    
O10   C6    A    
C30   C34   A    
N4    C20   A    
C2    C59   S    
C15   N3    A    
C29   C33   A    
C29   C57   A    
C28   C60   A    
N3    C19   A    
C68   C83   A    
C9    H1    S    
C94   N14   T    
C17   O26   S    
C43   C47   A    
C16   O24   S    
C67   C84   A    
C20   C56   A    
C19   O28   S    
C83   C95   S    
C4    O14   A    
C65   C82   A    
C13   O21   S    
C67   C71   A    
C89   N9    T    
C15   O23   S    
C45   C49   A    
C34   H6    S    
C62   C65   A    
C33   H5    S    
