data_mof_unit_pretest_1027.cif
_audit_creation_date              2013-03-05T15:50:32-0500
_audit_creation_method            fapswitch 2.2
_symmetry_space_group_name_H-M    P1
_symmetry_Int_Tables_number       1
_space_group_crystal_system       triclinic
_cell_length_a                    15.059474
_cell_length_b                    15.07477
_cell_length_c                    34.830567
_cell_angle_alpha                 91.230236
_cell_angle_beta                  91.690573
_cell_angle_gamma                 60.116068
_cell_volume                      6852.61126301

loop_
_atom_site_label
_atom_site_type_symbol
_atom_site_description
_atom_site_fract_x
_atom_site_fract_y
_atom_site_fract_z
_atom_type_partial_charge
O1    O     O_R   0.324990 0.503440 0.453910 -0.519685
O2    O     O_R   0.522030 0.339050 0.458320 -0.503092
C1    C     C_R   0.610838 0.302615 0.444023 0.543507
O3    O     O_R   0.676180 0.324490 0.458320 -0.515057
O4    O     O_R   0.643570 0.521510 0.464260 -0.504057
C2    C     C_R   0.593469 0.610197 0.449439 0.541837
O5    O     O_R   0.504630 0.675350 0.460920 -0.518469
O6    O     O_R   0.339850 0.642450 0.459830 -0.500489
C3    C     C_R   0.303786 0.591570 0.442406 0.543239
O7    O     O_R   0.321120 0.501280 0.538470 -0.519082
O8    O     O_R   0.518440 0.337050 0.536710 -0.514615
C4    C     C_R   0.605973 0.299683 0.553708 0.557952
O9    O     O_R   0.672300 0.322330 0.542880 -0.445173
O10   O     O_R   0.639980 0.519500 0.542640 -0.497461
C5    C     C_R   0.587460 0.606375 0.559110 0.538951
O11   O     O_R   0.500750 0.673190 0.545480 -0.519314
O12   O     O_R   0.336260 0.640450 0.538210 -0.501771
C6    C     C_R   0.297905 0.589170 0.551669 0.544807
Cr1   Cr    Cr6+3 0.426010 0.422500 0.497000 1.011941
Cr2   Cr    Cr6+3 0.651300 0.426310 0.501970 1.059749
Cr3   Cr    Cr6+3 0.422670 0.651170 0.501050 1.016903
O13   O     O_3   0.499990 0.499990 0.500010 -0.245089
C7    C     C_R   0.739611 0.715070 0.102912 0.007184
C8    C     C_R   0.646382 0.766395 0.122142 -0.107592
C9    C     C_R   0.641623 0.750304 0.161264 0.012582
C10   C     C_R   0.732857 0.682916 0.181600 0.044135
C11   C     C_R   0.824592 0.627229 0.161832 -0.139301
C12   C     C_R   0.828000 0.642875 0.122780 -0.136508
C13   C     C_R   0.759929 0.580084 0.240058 -0.121634
C14   C     C_R   0.753274 0.573754 0.279616 -0.116249
C15   C     C_R   0.722559 0.660822 0.303126 0.029146
C16   C     C_R   0.703651 0.752982 0.286650 -0.122700
C17   C     C_R   0.710508 0.759157 0.247077 -0.120533
C18   C     C_R   0.735475 0.673545 0.223554 0.024645
C19   C     C_R   0.607147 0.734677 0.358889 -0.119341
C20   C     C_R   0.575242 0.722463 0.394584 -0.125618
C21   C     C_R   0.731390 0.559183 0.401790 -0.126061
C22   C     C_R   0.763186 0.571424 0.366115 -0.122031
C23   C     C_R   0.699587 0.657435 0.343759 0.032198
C24   C     C_R   0.635289 0.632731 0.415662 0.021438
H1    H     H_    0.577295 0.821169 0.106925 0.128821
H2    H     H_    0.901063 0.602532 0.108700 0.132824
H3    H     H_    0.835506 0.511612 0.355257 0.102430
H4    H     H_    0.767014 0.502119 0.291538 0.105032
H5    H     H_    0.779973 0.513346 0.222155 0.107705
H6    H     H_    0.681006 0.820708 0.304253 0.106311
H7    H     H_    0.693221 0.831404 0.234595 0.117131
H8    H     H_    0.556297 0.801415 0.342070 0.102574
H9    H     H_    0.501008 0.780586 0.404596 0.128038
H10   H     H_    0.894711 0.574839 0.177071 0.104928
H11   H     H_    0.779934 0.489673 0.417591 0.127007
C25   C     C_R   0.101637 0.728847 0.085166 0.021424
C26   C     C_R   0.146700 0.635238 0.104702 -0.127623
C27   C     C_R   0.169016 0.631665 0.143882 -0.124029
C28   C     C_R   0.148028 0.721207 0.164072 0.029560
C29   C     C_R   0.113954 0.812527 0.143937 -0.123956
C30   C     C_R   0.090804 0.816394 0.104614 -0.129399
C31   C     C_R   0.207430 0.756600 0.227388 -0.118545
C32   C     C_R   0.214753 0.748680 0.267398 -0.115345
C33   C     C_R   0.164446 0.705958 0.286882 0.028779
C34   C     C_R   0.103502 0.675213 0.265687 -0.120049
C35   C     C_R   0.097334 0.681932 0.225792 -0.117913
C36   C     C_R   0.150951 0.720610 0.206339 0.026686
C37   C     C_R   0.198730 0.591639 0.342969 -0.120197
C38   C     C_R   0.230924 0.564394 0.380970 -0.126020
C39   C     C_R   0.226923 0.725624 0.391652 -0.124831
C40   C     C_R   0.194133 0.753131 0.353648 -0.121777
C41   C     C_R   0.183080 0.684910 0.328568 0.031833
C42   C     C_R   0.248960 0.629484 0.405291 0.021713
H12   H     H_    0.157010 0.566267 0.090442 0.124231
H13   H     H_    0.056274 0.889611 0.090333 0.121054
H14   H     H_    0.180652 0.826355 0.343548 0.100316
H15   H     H_    0.263329 0.771895 0.282878 0.102273
H16   H     H_    0.248899 0.787040 0.212792 0.102361
H17   H     H_    0.197180 0.560071 0.158918 0.103875
H18   H     H_    0.062113 0.644116 0.279901 0.105597
H19   H     H_    0.051329 0.655980 0.209987 0.107915
H20   H     H_    0.192008 0.536812 0.324310 0.100960
H21   H     H_    0.247535 0.489674 0.390548 0.126430
H22   H     H_    0.097799 0.882298 0.159109 0.100652
H23   H     H_    0.239439 0.777776 0.409811 0.125551
C43   C     C_R   0.726830 0.094107 0.087922 0.025166
C44   C     C_R   0.806233 0.089650 0.111488 -0.125044
C45   C     C_R   0.790656 0.112900 0.150500 -0.123392
C46   C     C_R   0.694997 0.143042 0.166228 0.029037
C47   C     C_R   0.613032 0.156792 0.142105 -0.119637
C48   C     C_R   0.629037 0.131706 0.103189 -0.124890
C49   C     C_R   0.603962 0.239474 0.224816 -0.119997
C50   C     C_R   0.595336 0.247339 0.264644 -0.119836
C51   C     C_R   0.665279 0.166601 0.288066 0.027505
C52   C     C_R   0.741620 0.076391 0.271228 -0.120469
C53   C     C_R   0.751317 0.069156 0.231452 -0.120318
C54   C     C_R   0.683400 0.151227 0.208082 0.026340
C55   C     C_R   0.741720 0.184654 0.350882 0.011781
C56   C     C_R   0.726976 0.216494 0.389375 -0.101945
C57   C     C_R   0.556925 0.236745 0.386818 -0.137086
C58   C     C_R   0.571012 0.204092 0.348631 -0.139666
C59   C     C_R   0.661595 0.180774 0.330053 0.041272
C60   C     C_R   0.633343 0.246823 0.407067 0.007939
H24   H     H_    0.882506 0.060316 0.100540 0.120198
H25   H     H_    0.566692 0.135677 0.085566 0.116278
H26   H     H_    0.509018 0.201811 0.332894 0.107244
H27   H     H_    0.535903 0.317500 0.277298 0.111783
H28   H     H_    0.550518 0.303075 0.207134 0.106878
H29   H     H_    0.854406 0.103045 0.168753 0.104090
H30   H     H_    0.794538 0.012473 0.288872 0.110224
H31   H     H_    0.811598 0.999447 0.218852 0.112938
H32   H     H_    0.786683 0.223474 0.404873 0.133219
H33   H     H_    0.538632 0.180233 0.153837 0.103918
H34   H     H_    0.483978 0.259604 0.399728 0.128419
C61   C     C_R   0.691658 0.689497 0.919975 0.020864
C62   C     C_R   0.765811 0.596721 0.903570 -0.127538
C63   C     C_R   0.753624 0.571587 0.865744 -0.123447
C64   C     C_R   0.667152 0.638731 0.843681 0.031768
C65   C     C_R   0.588623 0.726517 0.861294 -0.120075
C66   C     C_R   0.600610 0.751513 0.899142 -0.127260
C67   C     C_R   0.571615 0.649599 0.782203 -0.119612
C68   C     C_R   0.566520 0.648980 0.742160 -0.115902
C69   C     C_R   0.653908 0.622982 0.720732 0.027878
C70   C     C_R   0.747308 0.594182 0.739993 -0.113164
C71   C     C_R   0.752325 0.595374 0.780052 -0.111114
C72   C     C_R   0.664153 0.624596 0.801566 0.028501
C73   C     C_R   0.719326 0.544429 0.656344 -0.108852
C74   C     C_R   0.704828 0.541888 0.616641 -0.110709
C75   C     C_R   0.549778 0.706941 0.620148 -0.125162
C76   C     C_R   0.564042 0.709136 0.659798 -0.122451
C77   C     C_R   0.646824 0.626265 0.678373 0.022692
C78   C     C_R   0.617663 0.621301 0.598372 0.011810
H35   H     H_    0.836413 0.546763 0.919022 0.122571
H36   H     H_    0.541936 0.823415 0.910960 0.124717
H37   H     H_    0.508380 0.774132 0.676165 0.106068
H38   H     H_    0.494085 0.669187 0.727880 0.108647
H39   H     H_    0.502855 0.671080 0.798026 0.103989
H40   H     H_    0.814256 0.502223 0.853124 0.100882
H41   H     H_    0.815574 0.574128 0.724057 0.107281
H42   H     H_    0.824333 0.577576 0.794125 0.105358
H43   H     H_    0.783951 0.479749 0.670060 0.135779
H44   H     H_    0.758513 0.474844 0.600669 0.172418
H45   H     H_    0.521242 0.780045 0.845007 0.101312
H46   H     H_    0.482052 0.769539 0.606983 0.131104
C79   C     C_R   0.067341 0.698237 0.902578 0.023563
C80   C     C_R   0.093558 0.766279 0.886310 -0.126063
C81   C     C_R   0.122661 0.754431 0.848186 -0.122207
C82   C     C_R   0.125548 0.674672 0.825783 0.031843
C83   C     C_R   0.106263 0.602544 0.842793 -0.120916
C84   C     C_R   0.077680 0.614038 0.881002 -0.126179
C85   C     C_R   0.200510 0.577890 0.765337 -0.118018
C86   C     C_R   0.209013 0.574632 0.725635 -0.115396
C87   C     C_R   0.157365 0.664941 0.704186 0.027276
C88   C     C_R   0.097776 0.758726 0.722916 -0.115850
C89   C     C_R   0.088771 0.761956 0.762644 -0.114351
C90   C     C_R   0.140030 0.671508 0.784130 0.028690
C91   C     C_R   0.200127 0.725522 0.645516 -0.114345
C92   C     C_R   0.233704 0.707662 0.607840 -0.119646
C93   C     C_R   0.199965 0.566289 0.602893 -0.122695
C94   C     C_R   0.166707 0.584045 0.640528 -0.120069
C95   C     C_R   0.171073 0.660689 0.662562 0.030030
C96   C     C_R   0.238571 0.624683 0.586927 0.022715
H47   H     H_    0.087339 0.831190 0.902524 0.121950
H48   H     H_    0.057675 0.560606 0.892849 0.126372
H49   H     H_    0.142581 0.534562 0.653104 0.109316
H50   H     H_    0.257427 0.501742 0.711712 0.110255
H51   H     H_    0.241588 0.507428 0.781371 0.106308
H52   H     H_    0.139439 0.809632 0.835817 0.102412
H53   H     H_    0.057438 0.829064 0.706764 0.114835
H54   H     H_    0.040053 0.834859 0.776478 0.109136
H55   H     H_    0.203978 0.785105 0.662150 0.109310
H56   H     H_    0.262614 0.754164 0.596164 0.131847
H57   H     H_    0.107412 0.540700 0.825995 0.102536
H58   H     H_    0.201519 0.502711 0.587218 0.132049
C97   C     C_R   0.672847 0.080387 0.906317 0.020906
C98   C     C_R   0.594447 0.070477 0.887453 -0.129372
C99   C     C_R   0.563555 0.106656 0.849997 -0.121638
C100  C     C_R   0.610396 0.153502 0.830980 0.031848
C101  C     C_R   0.683647 0.169416 0.851035 -0.117898
C102  C     C_R   0.714287 0.133514 0.888262 -0.123945
C103  C     C_R   0.595252 0.260205 0.774385 -0.118082
C104  C     C_R   0.598751 0.270348 0.734886 -0.114761
C105  C     C_R   0.597625 0.197345 0.709588 0.027911
C106  C     C_R   0.587889 0.116703 0.724088 -0.111164
C107  C     C_R   0.586199 0.105422 0.763725 -0.113311
C108  C     C_R   0.592724 0.175608 0.789324 0.028281
C109  C     C_R   0.535590 0.211056 0.641774 -0.136156
C110  C     C_R   0.540694 0.232136 0.603410 -0.161962
C111  C     C_R   0.702908 0.226862 0.616677 0.212495
C112  C     C_R   0.694767 0.209318 0.655447 -0.102373
C113  C     C_R   0.609983 0.204535 0.668256 -0.017938
C114  C     C_R   0.621017 0.245953 0.590660 0.005310
H59   H     H_    0.561201 0.029767 0.900731 0.123524
H60   H     H_    0.774458 0.142818 0.902176 0.127035
H61   H     H_    0.754747 0.199482 0.675821 0.146668
H62   H     H_    0.604164 0.334278 0.724026 0.117597
H63   H     H_    0.598013 0.316775 0.793301 0.106328
H64   H     H_    0.505851 0.094641 0.835429 0.101126
H65   H     H_    0.586535 0.059961 0.704842 0.111507
H66   H     H_    0.585459 0.038776 0.774283 0.106173
H67   H     H_    0.470301 0.206100 0.651211 0.119221
H68   H     H_    0.477820 0.244068 0.584236 0.138818
H69   H     H_    0.722364 0.203891 0.837187 0.105156
O14   O     O_R   0.834210 0.019400 0.034570 -0.521998
O15   O     O_R   0.002210 0.824620 0.031030 -0.503371
C115  C     C_R   0.045403 0.739123 0.048612 0.539735
O16   O     O_R   0.024400 0.669340 0.039790 -0.520544
O17   O     O_R   0.830490 0.694950 0.045870 -0.501506
C116  C     C_R   0.747232 0.746485 0.063994 0.543395
O18   O     O_R   0.675430 0.831160 0.051290 -0.517625
O19   O     O_R   0.698870 0.998880 0.039560 -0.498819
C117  C     C_R   0.751459 0.039976 0.050778 0.540463
O20   O     O_R   0.811290 0.006780 0.950620 -0.517367
O21   O     O_R   0.980960 0.812920 0.953200 -0.500610
C118  C     C_R   0.017213 0.722403 0.939819 0.544672
O22   O     O_R   0.001480 0.656720 0.955830 -0.520552
O23   O     O_R   0.809240 0.683250 0.968050 -0.501558
C119  C     C_R   0.717200 0.730058 0.954936 0.541476
O24   O     O_R   0.652500 0.818540 0.967340 -0.521039
O25   O     O_R   0.677620 0.987170 0.961730 -0.502335
C120  C     C_R   0.721387 0.024592 0.942079 0.542567
Cr4   Cr    Cr6+3 0.905130 0.911420 0.992650 1.009661
Cr5   Cr    Cr6+3 0.911860 0.682710 0.002320 1.009531
Cr6   Cr    Cr6+3 0.682710 0.906840 0.004710 1.011248
O26   O     O_3   0.833240 0.833660 0.999890 -0.235101
C121  C     C_3   0.839386 0.163487 0.332012 -0.403105
H70   H     H_    0.821298 0.211939 0.306161 0.140588
H71   H     H_    0.888617 0.180544 0.351620 0.116704
H72   H     H_    0.884289 0.081591 0.323674 0.130000
C122  C     C_3   0.538522 0.806692 0.179894 -0.412265
H73   H     H_    0.539647 0.780125 0.209419 0.144865
H74   H     H_    0.512067 0.889848 0.180899 0.124861
H75   H     H_    0.482114 0.794395 0.162778 0.126096
N1    N     N_R   0.793556 0.226252 0.604618 0.086186
O27   O     O_R   0.837501 0.263908 0.627014 -0.377024
O28   O     O_R   0.842623 0.171362 0.575006 -0.317161

loop_
_geom_bond_atom_site_label_1
_geom_bond_atom_site_label_2
_geom_bond_distance
_ccdc_geom_bond_type
C28   C29   1.402351 A    
C76   C77   1.403067 A    
C38   H21   1.083066 S    
C88   C89   1.391830 A    
O14   Cr4   2.044446 S    
O15   C115  1.278371 A    
C81   H52   1.083157 S    
C35   H19   1.083706 S    
C61   C62   1.405890 A    
C61   C119  1.476292 S    
C80   H47   1.083180 S    
C109  C110  1.393221 A    
C67   H39   1.082927 S    
C100  C108  1.482092 S    
C43   C117  1.469239 S    
C58   C59   1.402726 A    
O23   Cr5   1.921498 S    
C87   C88   1.400132 A    
C73   C74   1.396337 A    
O4    Cr2   1.924508 S    
C116  O18   1.270820 A    
C106  C107  1.397182 A    
C111  N1    1.435684 S    
O8    Cr1   1.919900 S    
O19   Cr6   1.924701 S    
C21   C22   1.392964 A    
C103  H63   1.082857 S    
O20   Cr4   2.037299 S    
C37   C41   1.406107 A    
C74   H44   1.082913 S    
C94   C95   1.401019 A    
C3    C42   1.475830 S    
O15   Cr4   1.920958 S    
C92   C96   1.404768 A    
C21   C24   1.405884 A    
C46   C47   1.401397 A    
O4    C2    1.274610 A    
C21   H11   1.083040 S    
C56   C60   1.404924 A    
C39   C42   1.406151 A    
C84   H48   1.083166 S    
C55   C59   1.415144 A    
C43   C48   1.405112 A    
C4    C114  1.486111 S    
C57   C60   1.402369 A    
C107  C108  1.407827 A    
C9    C122  1.508284 S    
C14   C15   1.406581 A    
C29   C30   1.398513 A    
C40   H14   1.082858 S    
C112  H61   1.083830 S    
C107  H66   1.082584 S    
C68   C69   1.404995 A    
C62   C63   1.395217 A    
C92   H56   1.083126 S    
C85   C86   1.390058 A    
C48   H25   1.083243 S    
C46   C54   1.468590 S    
C45   C46   1.401934 A    
C10   C18   1.468618 S    
C91   C92   1.392316 A    
C19   C20   1.394163 A    
C15   C23   1.474748 S    
O6    C3    1.275627 A    
C28   C36   1.471633 S    
C75   C78   1.405561 A    
C89   C90   1.405655 A    
C61   C66   1.404858 A    
C62   H35   1.083062 S    
C32   H15   1.082612 S    
C58   H26   1.083605 S    
C11   H10   1.083697 S    
C74   C78   1.406627 A    
C39   C40   1.396025 A    
C112  C113  1.400433 A    
C32   C33   1.408755 A    
O14   C117  1.271492 A    
Cr3   O13   1.976257 S    
C50   H27   1.083477 S    
C93   C96   1.404346 A    
O24   Cr6   2.041354 S    
C8    H1    1.084134 S    
C52   H30   1.082833 S    
C14   H4    1.083007 S    
C121  H70   1.110830 S    
C16   H6    1.083080 S    
C40   C41   1.404238 A    
C19   H8    1.082998 S    
Cr6   O26   1.976493 S    
C49   H28   1.083270 S    
C83   C84   1.391389 A    
C75   H46   1.083008 S    
C27   H17   1.083519 S    
C83   H57   1.083001 S    
O1    Cr1   2.037132 S    
C5    O11   1.272141 A    
O17   Cr5   1.925846 S    
O19   C117  1.274327 A    
O10   Cr2   1.923374 S    
C20   C24   1.403947 A    
Cr1   O13   1.975216 S    
O1    C3    1.272823 A    
C8    C9    1.399309 A    
C56   H32   1.083560 S    
C64   C65   1.405218 A    
C52   C53   1.393603 A    
C119  O24   1.272860 A    
C111  C114  1.420031 A    
C121  H72   1.109064 S    
O18   Cr6   2.039704 S    
C9    C10   1.415624 A    
C99   C100  1.406808 A    
C88   H53   1.083229 S    
C57   H34   1.083058 S    
C13   C18   1.398682 A    
C30   H13   1.082792 S    
C110  C114  1.410864 A    
C13   H5    1.083342 S    
C33   C34   1.404058 A    
O3    Cr2   2.041602 S    
C19   C23   1.404682 A    
C67   C72   1.403916 A    
C118  O22   1.269961 A    
C13   C14   1.393157 A    
C6    C96   1.467294 S    
C109  C113  1.395983 A    
Cr5   O26   1.976022 S    
C104  H62   1.083634 S    
C34   H18   1.082915 S    
C53   H31   1.083553 S    
C102  H60   1.083269 S    
C44   C45   1.393061 A    
O23   C119  1.276560 A    
O7    Cr1   2.045352 S    
C7    C8    1.403270 A    
O25   C120  1.278616 A    
C57   C58   1.393137 A    
C47   H33   1.083278 S    
C35   C36   1.403348 A    
O12   C6    1.275709 A    
C10   C11   1.401044 A    
C66   H36   1.083042 S    
C55   C56   1.400352 A    
C109  H67   1.083362 S    
C7    C12   1.403411 A    
C49   C50   1.394111 A    
N1    O28   1.301339 A    
C103  C108  1.405912 A    
C97   C98   1.404893 A    
C101  H69   1.082594 S    
C71   C72   1.407233 A    
C97   C120  1.473754 S    
C106  H65   1.083235 S    
C79   C84   1.403258 A    
C103  C104  1.392942 A    
C65   H45   1.082757 S    
C94   H49   1.083417 S    
C122  H73   1.108226 S    
C110  H68   1.083071 S    
C44   H24   1.082942 S    
C75   C76   1.393570 A    
C17   H7    1.083541 S    
C2    C24   1.473141 S    
C45   H29   1.083461 S    
Cr2   O13   1.975505 S    
C51   C52   1.400933 A    
C1    O3    1.269805 A    
C89   H54   1.082995 S    
C73   C77   1.403320 A    
C99   H64   1.082738 S    
C70   C71   1.395340 A    
C31   H16   1.083211 S    
Cr4   O26   1.975645 S    
C55   C121  1.509116 S    
C63   C64   1.404196 A    
C31   C36   1.400450 A    
C79   C118  1.465805 S    
C49   C54   1.400914 A    
C121  H71   1.111200 S    
O9    Cr2   2.040277 S    
O2    Cr1   1.928226 S    
C47   C48   1.394573 A    
C37   H20   1.082658 S    
C15   C16   1.403895 A    
O25   Cr6   1.921437 S    
C26   H12   1.083201 S    
C82   C83   1.403614 A    
O6    Cr3   1.919305 S    
C27   C28   1.401308 A    
C69   C70   1.401870 A    
O11   Cr3   2.036454 S    
C26   C27   1.391480 A    
C2    O5    1.272698 A    
O22   Cr5   2.042507 S    
C98   H59   1.083145 S    
C122  H75   1.110702 S    
C97   C102  1.403256 A    
C73   H43   1.083079 S    
C122  H74   1.110236 S    
C29   H22   1.083244 S    
C65   C66   1.394561 A    
O16   Cr5   2.038785 S    
C63   H40   1.082988 S    
C70   H41   1.083109 S    
C86   H50   1.083415 S    
C37   C38   1.393824 A    
C85   C90   1.401546 A    
C31   C32   1.397642 A    
O20   C120  1.269261 A    
N1    O27   1.301379 A    
C82   C90   1.469692 S    
C101  C102  1.390366 A    
C85   H51   1.083123 S    
C79   C80   1.403817 A    
C16   C17   1.393811 A    
C39   H23   1.083022 S    
O5    Cr3   2.044992 S    
C7    C116  1.471680 S    
C93   H58   1.083107 S    
C5    C78   1.476378 S    
C111  C112  1.402102 A    
C22   C23   1.402375 A    
C76   H37   1.083246 S    
O7    C6    1.269162 A    
C38   C42   1.403735 A    
C12   H2    1.083172 S    
C53   C54   1.404465 A    
C17   C18   1.402655 A    
O2    C1    1.278221 A    
C25   C115  1.475255 S    
C86   C87   1.403811 A    
O21   C118  1.273794 A    
C71   H42   1.082840 S    
C91   C95   1.401965 A    
C34   C35   1.392409 A    
O12   Cr3   1.926813 S    
C68   H38   1.083260 S    
C25   C30   1.407404 A    
C20   H9    1.083003 S    
C98   C99   1.399215 A    
C64   C72   1.480360 S    
C1    C60   1.474543 S    
C22   H3    1.083177 S    
C105  C113  1.470190 S    
O17   C116  1.276368 A    
C33   C41   1.481403 S    
C115  O16   1.270047 A    
C43   C44   1.404468 A    
C93   C94   1.389585 A    
C80   C81   1.390490 A    
C105  C106  1.400968 A    
O10   C5    1.277541 A    
C4    O9    1.274388 A    
C50   C51   1.403842 A    
C67   C68   1.394644 A    
C87   C95   1.466006 S    
C51   C59   1.472062 S    
C91   H55   1.083227 S    
O21   Cr4   1.926712 S    
C81   C82   1.402168 A    
O8    C4    1.278221 A    
C25   C26   1.405183 A    
C104  C105  1.401382 A    
C11   C12   1.392231 A    
C100  C101  1.404767 A    
C69   C77   1.476203 S    
