data_mof_unit_pretest_203.cif
_audit_creation_date              2012-10-26T21:23:25-0400
_audit_creation_method            fapswitch 2.2
_symmetry_space_group_name_H-M    P1
_symmetry_Int_Tables_number       1
_space_group_crystal_system       triclinic
_cell_length_a                    27.805753
_cell_length_b                    10.904999
_cell_length_c                    9.671978
_cell_angle_alpha                 90.019657
_cell_angle_beta                  89.73761
_cell_angle_gamma                 90.02678
_cell_volume                      2932.72245101

loop_
_atom_site_label
_atom_site_type_symbol
_atom_type_description
_atom_site_fract_x
_atom_site_fract_y
_atom_site_fract_z
_atom_type_partial_charge
C1    C     C_R   0.502136 0.264878 0.499485 0.551599
C2    C     C_R   0.974170 0.390134 0.468469 0.016238
C3    C     C_R   0.974687 0.608529 0.532759 0.017818
C4    C     C_R   0.407393 0.497792 0.500483 0.544557
C5    C     C_R   0.949175 0.499960 0.500032 0.033010
C6    C     C_R   0.947917 0.292397 0.410041 -0.149440
C7    C     C_R   0.897963 0.295129 0.403942 -0.113928
C8    C     C_R   0.872616 0.397828 0.451052 0.026320
C9    C     C_R   0.898190 0.501586 0.496608 -0.026785
C10   C     C_R   0.872784 0.607198 0.537674 0.024293
C11   C     C_R   0.822300 0.605693 0.536664 0.401646
C12   C     C_R   0.276634 0.444996 0.603994 -0.034626
C13   C     C_R   0.822158 0.400474 0.450874 0.399786
C14   C     C_R   0.721472 0.505078 0.621675 -0.050821
C15   C     C_R   0.671315 0.504120 0.623197 -0.132000
C16   C     C_R   0.500946 0.734709 0.499808 0.598428
C17   C     C_R   0.670944 0.499451 0.372395 -0.118049
C18   C     C_R   0.721085 0.500240 0.371187 -0.045754
C19   C     C_R   0.746521 0.502980 0.495738 0.239176
C20   C     C_R   0.024796 0.384560 0.487898 0.030769
C21   C     C_R   0.050428 0.496872 0.500580 0.021752
C22   C     C_R   0.025524 0.609448 0.519975 0.019091
C23   C     C_R   0.253135 0.495003 0.489642 0.225765
C24   C     C_R   0.051234 0.272392 0.496184 -0.013827
C25   C     C_R   0.102256 0.718436 0.514712 -0.111471
C26   C     C_R   0.948272 0.712806 0.575314 -0.141807
C27   C     C_R   0.898244 0.711583 0.578736 -0.109844
C28   C     C_R   0.592575 0.500309 0.499658 0.572710
C29   C     C_R   0.052382 0.719464 0.524220 -0.140883
C30   C     C_2   0.526125 0.930776 0.404350 0.219899
C31   C     C_2   0.500118 0.867021 0.497258 -0.084982
C32   C     C_2   0.517599 0.062902 0.386533 -0.009551
C33   C     C_2   0.509939 0.132705 0.500399 -0.123040
C34   C     C_R   0.101399 0.496695 0.495177 -0.032729
C35   C     C_2   0.474193 0.424671 0.922404 -0.021802
C36   C     C_2   0.472325 0.429053 0.078182 -0.027791
C37   C     C_R   0.177163 0.387283 0.478577 0.395411
C38   C     C_R   0.177672 0.605393 0.496455 0.400035
C39   C     C_R   0.279936 0.544287 0.380523 -0.062609
C40   C     C_R   0.329986 0.544103 0.385801 -0.157241
C41   C     C_R   0.326973 0.443898 0.611244 -0.022615
C42   C     C_3   0.350088 0.384840 0.735282 -0.381458
C43   C     C_3   0.517258 0.112816 0.240419 -0.317513
C44   C     C_3   0.029256 0.150911 0.537844 -0.412985
C45   C     C_R   0.126683 0.385514 0.483977 0.010452
C46   C     C_R   0.101430 0.274736 0.486460 -0.094418
C47   C     C_R   0.127209 0.607773 0.501633 0.028314
C48   C     C_R   0.354214 0.495243 0.500711 0.018588
C49   C     C_R   0.645567 0.501216 0.498489 0.014689
Cl1   Cl    Cl    0.571209 0.859968 0.301338 -0.579016
Cu1   Cu    Cu3+1 0.500010 0.500020 0.638630 0.956626
Cu2   Cu    Cu3+1 0.499990 0.499980 0.361370 0.981188
H1    H     H_    0.261925 0.582799 0.291519 0.138771
H2    H     H_    0.512340 0.091392 0.602367 0.094885
H3    H     H_    0.452407 0.355927 0.871256 0.131127
H4    H     H_    0.518489 0.567565 0.893864 0.216706
H5    H     H_    0.447004 0.368682 0.129931 0.133899
H6    H     H_    0.525119 0.551743 0.105608 0.225589
H7    H     H_    0.120929 0.188646 0.488346 0.168466
H8    H     H_    0.652771 0.505623 0.721886 0.140110
H9    H     H_    0.740943 0.506895 0.718360 0.136321
H10   H     H_    0.879328 0.216499 0.361509 0.170138
H11   H     H_    0.965645 0.214181 0.364443 0.127669
H12   H     H_    0.121215 0.805199 0.518219 0.165443
H13   H     H_    0.349838 0.583573 0.300048 0.134778
H14   H     H_    0.323143 0.339012 0.802896 0.122161
H15   H     H_    0.376240 0.313947 0.701181 0.142785
H16   H     H_    0.368466 0.455487 0.798560 0.156567
H17   H     H_    0.522436 0.039186 0.162588 0.173294
H18   H     H_    0.481888 0.155287 0.217804 0.124762
H19   H     H_    0.546707 0.180534 0.226243 0.170284
H20   H     H_    0.052429 0.104480 0.615139 0.134081
H21   H     H_    0.993839 0.162380 0.589380 0.147842
H22   H     H_    0.026279 0.089753 0.446500 0.126324
H23   H     H_    0.965406 0.795892 0.610241 0.110067
H24   H     H_    0.652122 0.497381 0.274657 0.144941
H25   H     H_    0.879582 0.793534 0.612561 0.169577
H26   H     H_    0.740239 0.498946 0.273462 0.137317
H27   H     H_    0.035668 0.808515 0.530662 0.105598
H28   H     H_    0.474552 0.911788 0.565806 0.050017
H29   H     H_    0.255252 0.407103 0.687654 0.131267
N1    N     N_R   0.201546 0.496114 0.485695 -0.397644
N2    N     N_R   0.798112 0.503052 0.494427 -0.399896
N3    N     N_2   0.499480 0.498660 0.846910 -0.344307
N4    N     N_2   0.499460 0.498630 0.153040 -0.343192
O1    O     O_R   0.500010 0.321960 0.617040 -0.498532
O2    O     O_R   0.569740 0.500000 0.617090 -0.496040
O3    O     O_R   0.569730 0.499960 0.382940 -0.484921
O4    O     O_2   0.201749 0.281065 0.466713 -0.495536
O5    O     O_2   0.797297 0.300930 0.409062 -0.483806
O6    O     O_2   0.202712 0.711193 0.504506 -0.492955
O7    O     O_2   0.797558 0.706233 0.576431 -0.478599
O8    O     O_R   0.499990 0.321920 0.382900 -0.503643
O9    O     O_R   0.430270 0.500040 0.617060 -0.500138
O10   O     O_R   0.430260 0.500000 0.382910 -0.504314
O11   O     O_R   0.500010 0.678080 0.617100 -0.497157
O12   O     O_R   0.499990 0.678040 0.382960 -0.441285

loop_
_geom_bond_atom_site_label_1
_geom_bond_atom_site_label_2
_ccdc_geom_bond_type
C10   C27   A    
C8    C13   A    
C23   N1    S    
C13   O5    S    
C15   H8    S    
C35   C36   S    
C1    C33   S    
C7    C8    A    
C45   C46   A    
C16   C31   S    
C12   C23   A    
C26   C27   A    
Cu2   N4    S    
C22   C29   A    
C30   C31   D    
C46   H7    S    
C16   O12   A    
Cu2   O12   S    
C33   H2    S    
Cu2   O10   S    
C18   C19   A    
C41   C42   S    
C11   O7    S    
C41   C48   A    
C20   C24   A    
C8    C9    A    
C28   O3    A    
C17   H24   S    
H4    N3    S    
C9    C10   A    
C25   C47   A    
Cu1   O11   S    
C30   Cl1   S    
C43   H17   S    
C21   C22   A    
C38   N1    A    
C42   H16   S    
C2    C6    A    
C19   N2    S    
Cu1   O1    S    
C17   C18   A    
C25   C29   A    
C16   O11   A    
C35   H3    S    
Cu1   Cu2   S    
Cu2   O3    S    
C31   H28   S    
C36   H5    S    
Cu1   O2    S    
C39   C40   A    
C21   C34   A    
C11   N2    A    
C14   H9    S    
C2    C20   A    
C38   O6    S    
C25   H12   S    
C6    H11   S    
C7    H10   S    
C5    C9    A    
C12   C41   A    
C4    O10   A    
C28   C49   S    
C29   H27   S    
C18   H26   S    
C28   O2    A    
C26   H23   S    
Cu2   O8    S    
C34   C45   A    
C44   H22   S    
C38   C47   A    
C4    O9    A    
C43   H18   S    
C40   H13   S    
C42   H15   S    
C24   C44   S    
C37   N1    A    
C2    C5    A    
C17   C49   A    
H6    N4    S    
C3    C5    A    
C4    C48   S    
C1    O1    A    
C40   C48   A    
C43   H19   S    
C14   C19   A    
C3    C26   A    
C27   H25   S    
C35   N3    D    
C6    C7    A    
C36   N4    D    
C13   N2    A    
C37   O4    S    
C24   C46   A    
C32   C33   D    
C30   C32   S    
C39   H1    S    
C23   C39   A    
C32   C43   S    
C12   H29   S    
C44   H20   S    
C15   C49   A    
C44   H21   S    
C10   C11   A    
Cu1   O9    S    
C20   C21   A    
C1    O8    A    
C42   H14   S    
C14   C15   A    
C3    C22   A    
C34   C47   A    
C37   C45   A    
Cu1   N3    S    
