data_mof_unit_pretest_1368.cif
_audit_creation_date              2012-12-10T19:46:26-0500
_audit_creation_method            fapswitch 2.2
_symmetry_space_group_name_H-M    P1
_symmetry_Int_Tables_number       1
_space_group_crystal_system       triclinic
_cell_length_a                    10.823743
_cell_length_b                    10.923288
_cell_length_c                    10.453916
_cell_angle_alpha                 90.462831
_cell_angle_beta                  90.495577
_cell_angle_gamma                 88.136538
_cell_volume                      1235.23806604

loop_
_atom_site_label
_atom_site_type_symbol
_atom_type_description
_atom_site_fract_x
_atom_site_fract_y
_atom_site_fract_z
_atom_type_partial_charge
C1    C     C_R   0.495611 0.261666 0.499354 0.893730
C2    C     C_R   0.504378 0.738336 0.500647 0.893736
C3    C     C_R   0.871672 0.500234 0.501848 -0.180121
C4    C     C_R   0.128328 0.499758 0.498148 -0.180118
C5    C     C_R   0.940188 0.411256 0.571969 -0.105224
C6    C     C_R   0.059812 0.588737 0.428028 -0.105223
C7    C     C_R   0.301093 0.228460 0.120497 -0.170643
C8    C     C_R   0.698739 0.771631 0.879649 -0.170735
C9    C     C_R   0.332704 0.178923 0.239722 -0.137934
C10   C     C_R   0.667178 0.821117 0.760387 -0.137884
C11   C     C_R   0.448368 0.119048 0.258329 0.223363
C12   C     C_R   0.551510 0.880966 0.741697 0.223426
C13   C     C_R   0.532131 0.110707 0.156633 -0.102506
C14   C     C_R   0.467693 0.889327 0.843347 -0.102510
C15   C     C_R   0.500360 0.161007 0.037988 -0.150998
C16   C     C_R   0.499415 0.839081 0.962030 -0.150986
C17   C     C_R   0.384571 0.218749 0.019414 -0.078760
C18   C     C_R   0.615208 0.781367 0.980686 -0.078681
C19   C     C_R   0.491604 0.934234 0.385381 0.571596
C20   C     C_R   0.508355 0.065770 0.614620 0.571593
C21   C     C_R   0.507885 0.871947 0.501675 -0.268310
C22   C     C_R   0.492082 0.128056 0.498327 -0.268311
C23   C     C_R   0.261774 0.500659 0.499391 0.853007
C24   C     C_R   0.738226 0.499337 0.500608 0.853015
C25   C     C_R   0.520037 0.938842 0.617187 -0.208162
C26   C     C_R   0.479906 0.061163 0.382818 -0.208111
C27   C     C_1   0.500003 0.500026 0.072027 0.083116
C28   C     C_1   0.499998 0.499974 0.927973 0.083136
C29   C     C_R   0.188629 0.892563 0.337120 -0.102266
C30   C     C_R   0.811284 0.107485 0.662921 -0.102208
C31   C     C_R   0.143706 0.797939 0.410843 -0.141380
C32   C     C_R   0.856223 0.202086 0.589183 -0.141419
C33   C     C_R   0.121091 0.683944 0.354175 0.159066
C34   C     C_R   0.878908 0.316068 0.645844 0.159115
C35   C     C_R   0.146469 0.664570 0.224005 -0.059152
C36   C     C_R   0.853582 0.335451 0.776023 -0.059178
C37   C     C_R   0.192664 0.759085 0.150898 -0.135274
C38   C     C_R   0.807367 0.240960 0.849146 -0.135353
C39   C     C_R   0.212378 0.873404 0.207067 -0.033621
C40   C     C_R   0.787585 0.126653 0.792983 -0.033604
C41   C     C_R   0.930869 0.589582 0.430973 0.208456
C42   C     C_R   0.069130 0.410408 0.569020 0.208436
Cu1   Cu    Cu3+1 0.500000 0.500000 0.625300 1.024223
Cu2   Cu    Cu3+1 0.500000 0.500000 0.374700 1.024213
H1    H     H_    0.246465 0.946870 0.149786 0.139888
H2    H     H_    0.753486 0.053204 0.850274 0.139898
H3    H     H_    0.621680 0.065017 0.169247 0.151070
H4    H     H_    0.378143 0.935003 0.830669 0.151059
H5    H     H_    0.565569 0.154777 0.960532 0.197858
H6    H     H_    0.434171 0.845342 0.039455 0.197755
H7    H     H_    0.204168 0.980840 0.380839 0.129365
H8    H     H_    0.795690 0.019216 0.619208 0.129343
H9    H     H_    0.123461 0.814272 0.510937 0.132569
H10   H     H_    0.876422 0.185746 0.489080 0.132547
H11   H     H_    0.128462 0.577184 0.179046 0.121916
H12   H     H_    0.871643 0.422827 0.820976 0.121931
H13   H     H_    0.211564 0.744249 0.050359 0.118317
H14   H     H_    0.788504 0.255804 0.949690 0.118355
H15   H     H_    0.359981 0.256858 0.927039 0.200972
H16   H     H_    0.639763 0.743302 0.073092 0.201079
H17   H     H_    0.211846 0.274157 0.106422 0.145080
H18   H     H_    0.787993 0.725962 0.893791 0.145120
H19   H     H_    0.267169 0.186738 0.317280 0.129948
H20   H     H_    0.732758 0.813295 0.682868 0.129920
N1    N     N_1   0.500010 0.499990 0.186410 -0.128378
N2    N     N_1   0.499990 0.500010 0.813590 -0.128372
O1    O     O_R   0.499990 0.319650 0.605810 -0.493859
O2    O     O_R   0.500010 0.680350 0.394190 -0.493872
O3    O     O_R   0.499990 0.319640 0.394190 -0.602051
O4    O     O_R   0.500010 0.680360 0.605810 -0.602062
O5    O     O_R   0.319640 0.500010 0.605810 -0.552032
O6    O     O_R   0.680360 0.499990 0.394190 -0.552028
O7    O     O_R   0.319650 0.500010 0.394190 -0.592417
O8    O     O_R   0.680350 0.499990 0.605810 -0.592408
F1    F     F_    0.483119 0.871671 0.273008 -0.681471
F2    F     F_    0.516841 0.128335 0.726992 -0.681437
Br1   Br    Br    0.836253 0.718410 0.343978 -0.559071
Br2   Br    Br    0.163745 0.281573 0.656006 -0.559089

loop_
_geom_bond_atom_site_label_1
_geom_bond_atom_site_label_2
_ccdc_geom_bond_type
C30   C32   A    
C5    C42   A    
C3    C24   S    
C40   H2    S    
C36   H12   S    
C19   C21   A    
C16   H6    S    
C2    O2    A    
C41   Br1   S    
C20   C25   A    
C20   F2    S    
C15   C17   A    
C19   C26   A    
C7    H17   S    
C30   H8    S    
C1    O1    A    
C38   H14   S    
C7    C17   A    
C6    C41   A    
C31   C33   A    
C39   H1    S    
Cu1   O8    S    
C1    C22   S    
Cu2   N1    S    
C23   O7    A    
C32   H10   S    
C37   C39   A    
C35   H11   S    
C23   O5    A    
C4    C6    A    
C13   H3    S    
C4    C23   S    
C14   H4    S    
C11   C26   S    
C1    O3    A    
C32   C34   A    
C28   N2    T    
Cu1   Cu2   S    
C27   N1    T    
C5    C34   S    
C29   C39   A    
C2    C21   S    
C30   C40   A    
Cu2   O3    S    
C31   H9    S    
C9    C11   A    
C10   C12   A    
C17   H15   S    
C16   C18   A    
C20   C22   A    
C42   Br2   S    
Cu1   O4    S    
C13   C15   A    
C14   C16   A    
Cu2   O2    S    
C24   O6    A    
C29   H7    S    
C18   H16   S    
C7    C9    A    
C21   C25   A    
C3    C41   A    
Cu1   O5    S    
C35   C37   A    
C9    H19   S    
C8    C10   A    
C10   H20   S    
C12   C14   A    
C3    C5    A    
C6    C33   S    
C12   C25   S    
C19   F1    S    
C29   C31   A    
C38   C40   A    
C11   C13   A    
C24   O8    A    
C4    C42   A    
Cu1   N2    S    
C36   C38   A    
C33   C35   A    
Cu2   O6    S    
C34   C36   A    
C15   H5    S    
Cu2   O7    S    
C8    C18   A    
Cu1   O1    S    
C22   C26   A    
C27   C28   S    
C2    O4    A    
C37   H13   S    
C8    H18   S    
