data_mof_unit_pretest_1545.cif
_audit_creation_date              2013-03-05T16:38:26-0500
_audit_creation_method            fapswitch 2.2
_symmetry_space_group_name_H-M    P1
_symmetry_Int_Tables_number       1
_space_group_crystal_system       triclinic
_cell_length_a                    25.668354
_cell_length_b                    25.668202
_cell_length_c                    43.032553
_cell_angle_alpha                 90.0
_cell_angle_beta                  89.999968
_cell_angle_gamma                 89.994211
_cell_volume                      28352.4490466

loop_
_atom_site_label
_atom_site_type_symbol
_atom_site_description
_atom_site_fract_x
_atom_site_fract_y
_atom_site_fract_z
_atom_type_partial_charge
Zn1   Zn    Zn3+2 0.500000 0.061050 0.224040 0.996997
Zn2   Zn    Zn3+2 0.500000 0.938950 0.775960 0.996939
Zn3   Zn    Zn3+2 0.938950 0.500000 0.224040 0.996979
Zn4   Zn    Zn3+2 0.061050 0.500000 0.775960 0.996920
Zn5   Zn    Zn3+2 0.500000 0.938950 0.224040 0.996989
Zn6   Zn    Zn3+2 0.500000 0.061050 0.775960 0.996933
Zn7   Zn    Zn3+2 0.061050 0.500000 0.224040 0.996998
Zn8   Zn    Zn3+2 0.938950 0.500000 0.775960 0.996938
Zn9   Zn    Zn3+2 0.000000 0.561050 0.724040 0.996928
Zn10  Zn    Zn3+2 1.000000 0.438950 0.275960 0.996991
Zn11  Zn    Zn3+2 0.438950 0.000000 0.724040 0.996904
Zn12  Zn    Zn3+2 0.561050 1.000000 0.275960 0.996969
Zn13  Zn    Zn3+2 0.000000 0.438950 0.724040 0.996912
Zn14  Zn    Zn3+2 0.000000 0.561050 0.275960 0.996979
Zn15  Zn    Zn3+2 0.561050 0.000000 0.724040 0.996925
Zn16  Zn    Zn3+2 0.438950 1.000000 0.275960 0.996983
C1    C     C_1   0.171757 0.328242 0.250000 -0.039117
C2    C     C_1   0.828242 0.671758 0.750000 -0.039054
C3    C     C_1   0.671760 0.171760 0.250000 -0.049750
C4    C     C_1   0.328240 0.828240 0.750000 -0.049836
C5    C     C_1   0.828242 0.671758 0.250000 -0.039103
C6    C     C_1   0.171758 0.328242 0.750000 -0.039018
C7    C     C_1   0.328240 0.828240 0.250000 -0.049745
C8    C     C_1   0.671759 0.171760 0.750000 -0.049854
C9    C     C_1   0.171760 0.671760 0.750000 -0.049836
C10   C     C_1   0.828240 0.328240 0.250000 -0.049750
C11   C     C_1   0.671758 0.828242 0.750000 -0.039054
C12   C     C_1   0.328242 0.171758 0.250000 -0.039114
C13   C     C_1   0.828240 0.328240 0.750000 -0.049855
C14   C     C_1   0.171760 0.671760 0.250000 -0.049744
C15   C     C_1   0.328242 0.171758 0.750000 -0.039018
C16   C     C_1   0.671757 0.828242 0.250000 -0.039101
C17   C     C_1   0.361447 0.138553 0.250000 -0.102362
C18   C     C_1   0.638553 0.861446 0.750000 -0.102436
C19   C     C_1   0.861444 0.361443 0.250000 -0.113250
C20   C     C_1   0.138556 0.638557 0.750000 -0.113354
C21   C     C_1   0.638553 0.861446 0.250000 -0.102366
C22   C     C_1   0.361446 0.138554 0.750000 -0.102445
C23   C     C_1   0.138556 0.638557 0.250000 -0.113246
C24   C     C_1   0.861444 0.361443 0.750000 -0.113360
C25   C     C_1   0.361444 0.861443 0.750000 -0.113355
C26   C     C_1   0.638556 0.138557 0.250000 -0.113250
C27   C     C_1   0.861447 0.638554 0.750000 -0.102435
C28   C     C_1   0.138553 0.361446 0.250000 -0.102366
C29   C     C_1   0.638556 0.138557 0.750000 -0.113359
C30   C     C_1   0.361444 0.861443 0.250000 -0.113246
C31   C     C_1   0.138554 0.361446 0.750000 -0.102446
C32   C     C_1   0.861447 0.638553 0.250000 -0.102372
O1    O     O_3   0.500000 0.000000 0.250000 -0.492233
O2    O     O_3   0.500000 1.000000 0.750000 -0.492174
O3    O     O_3   0.000000 0.500000 0.250000 -0.492230
O4    O     O_3   0.000000 0.500000 0.750000 -0.492174
O5    O     O_R   0.457240 0.000000 0.319330 -0.632523
O6    O     O_R   0.542760 0.000000 0.680670 -0.632549
O7    O     O_R   1.000000 0.457240 0.319330 -0.632563
O8    O     O_R   0.000000 0.542760 0.680670 -0.632538
O9    O     O_R   0.542760 0.000000 0.319330 -0.632529
O10   O     O_R   0.457240 0.000000 0.680670 -0.632518
O11   O     O_R   0.000000 0.542760 0.319330 -0.632565
O12   O     O_R   0.000000 0.457240 0.680670 -0.632576
O13   O     O_R   0.957240 0.500000 0.819330 -0.632589
O14   O     O_R   0.042760 0.500000 0.180670 -0.632554
O15   O     O_R   0.500000 0.957240 0.819330 -0.632575
O16   O     O_R   0.500000 0.042760 0.180670 -0.632573
O17   O     O_R   0.042760 0.500000 0.819330 -0.632556
O18   O     O_R   0.957240 0.500000 0.180670 -0.632563
O19   O     O_R   0.500000 0.042760 0.819330 -0.632608
O20   O     O_R   0.500000 0.957240 0.180670 -0.632574
O21   O     O_R   0.602780 0.060140 0.268190 -0.629299
O22   O     O_R   0.397220 0.939860 0.731810 -0.629357
O23   O     O_R   0.939860 0.602780 0.268190 -0.630776
O24   O     O_R   0.060140 0.397220 0.731810 -0.630828
O25   O     O_R   0.397220 0.939860 0.268190 -0.629289
O26   O     O_R   0.602780 0.060140 0.731810 -0.629324
O27   O     O_R   0.060140 0.397220 0.268190 -0.630765
O28   O     O_R   0.939860 0.602780 0.731810 -0.630846
O29   O     O_R   0.602780 0.939860 0.731810 -0.630808
O30   O     O_R   0.397220 0.060140 0.268190 -0.630759
O31   O     O_R   0.939860 0.397220 0.731810 -0.629333
O32   O     O_R   0.060140 0.602780 0.268190 -0.629283
O33   O     O_R   0.397220 0.060140 0.731810 -0.630857
O34   O     O_R   0.602780 0.939860 0.268190 -0.630769
O35   O     O_R   0.060140 0.602780 0.731810 -0.629327
O36   O     O_R   0.939860 0.397220 0.268190 -0.629274
O37   O     O_R   0.102780 0.560140 0.768190 -0.629332
O38   O     O_R   0.897220 0.439860 0.231810 -0.629282
O39   O     O_R   0.439860 0.102780 0.768190 -0.630825
O40   O     O_R   0.560140 0.897220 0.231810 -0.630772
O41   O     O_R   0.897220 0.439860 0.768190 -0.629300
O42   O     O_R   0.102780 0.560140 0.231810 -0.629271
O43   O     O_R   0.560140 0.897220 0.768190 -0.630848
O44   O     O_R   0.439860 0.102780 0.231810 -0.630762
O45   O     O_R   0.102780 0.439860 0.231810 -0.630757
O46   O     O_R   0.897220 0.560140 0.768190 -0.630809
O47   O     O_R   0.439860 0.897220 0.231810 -0.629272
O48   O     O_R   0.560140 0.102780 0.768190 -0.629309
O49   O     O_R   0.897220 0.560140 0.231810 -0.630769
O50   O     O_R   0.102780 0.439860 0.768190 -0.630855
O51   O     O_R   0.560140 0.102780 0.231810 -0.629263
O52   O     O_R   0.439860 0.897220 0.768190 -0.629304
C33   C     C_R   0.500002 1.000000 0.065804 -0.214909
C34   C     C_R   0.500006 0.000005 0.934197 -0.214842
C35   C     C_R   0.000003 0.500005 0.065805 -0.214922
C36   C     C_R   0.000001 0.500003 0.934196 -0.214864
C37   C     C_R   0.999999 0.500000 0.565805 -0.214881
C38   C     C_R   0.999998 0.499998 0.434196 -0.214915
C39   C     C_R   0.500000 1.000000 0.565805 -0.214907
C40   C     C_R   0.500000 1.000000 0.434194 -0.214959
C41   C     C_R   0.460736 0.027016 0.082125 0.288436
C42   C     C_R   0.539243 0.972947 0.917876 0.288401
C43   C     C_R   0.973025 0.539297 0.082126 0.288457
C44   C     C_R   0.027004 0.460727 0.917875 0.288414
C45   C     C_R   0.539268 0.972983 0.082126 0.288436
C46   C     C_R   0.460769 0.027064 0.917877 0.288377
C47   C     C_R   0.026981 0.460712 0.082126 0.288450
C48   C     C_R   0.972999 0.539279 0.917875 0.288427
C49   C     C_R   0.960695 0.526961 0.582126 0.288447
C50   C     C_R   0.039282 0.473008 0.417875 0.288438
C51   C     C_R   0.473105 0.039349 0.582127 0.288466
C52   C     C_R   0.526884 0.960643 0.417873 0.288496
C53   C     C_R   0.039303 0.473039 0.582126 0.288442
C54   C     C_R   0.960714 0.526988 0.417875 0.288445
C55   C     C_R   0.526895 0.960650 0.582127 0.288475
C56   C     C_R   0.473116 0.039357 0.417873 0.288497
C57   C     C_R   0.500001 1.000000 0.131355 -0.225128
C58   C     C_R   0.500003 0.000001 0.868646 -0.225121
C59   C     C_R   0.000001 0.500002 0.131356 -0.225102
C60   C     C_R   0.000000 0.500001 0.868645 -0.225083
C61   C     C_R   1.000000 0.500000 0.631356 -0.225056
C62   C     C_R   0.999999 0.499999 0.368645 -0.225113
C63   C     C_R   0.500000 1.000000 0.631356 -0.225014
C64   C     C_R   0.500000 1.000000 0.368643 -0.225043
N1    N     N_R   0.543427 0.013749 0.015467 -0.085395
N2    N     N_R   0.456581 0.986255 0.984533 -0.085409
N3    N     N_R   0.986206 0.456596 0.015467 -0.085401
N4    N     N_R   0.013796 0.543413 0.984533 -0.085384
N5    N     N_R   0.456580 0.986253 0.015466 -0.085383
N6    N     N_R   0.543428 0.013750 0.984534 -0.085417
N7    N     N_R   0.013797 0.543413 0.015466 -0.085373
N8    N     N_R   0.986206 0.456595 0.984534 -0.085421
N9    N     N_R   0.043401 0.513814 0.515466 -0.085372
N10   N     N_R   0.956595 0.486186 0.484534 -0.085402
N11   N     N_R   0.486088 0.956628 0.515466 -0.085379
N12   N     N_R   0.513913 0.043371 0.484534 -0.085393
N13   N     N_R   0.956596 0.486186 0.515466 -0.085401
N14   N     N_R   0.043401 0.513813 0.484533 -0.085392
N15   N     N_R   0.513913 0.043371 0.515466 -0.085409
N16   N     N_R   0.486088 0.956628 0.484534 -0.085377
C65   C     C_R   0.999998 0.499999 0.468514 0.400901
C66   C     C_R   0.999998 0.500000 0.531486 0.400841
C67   C     C_R   0.500000 1.000000 0.468514 0.400877
C68   C     C_R   0.500000 1.000000 0.531486 0.400866
C69   C     C_R   0.500005 0.000003 0.968515 0.400904
C70   C     C_R   0.500003 0.000000 0.031485 0.400877
C71   C     C_R   0.000001 0.500004 0.968515 0.400874
C72   C     C_R   0.000002 0.500005 0.031486 0.400869
C73   C     C_R   0.500000 0.000000 0.334281 0.770797
C74   C     C_R   0.500000 1.000000 0.665719 0.770796
C75   C     C_R   1.000000 0.500000 0.334281 0.770827
C76   C     C_R   1.000000 0.500000 0.665719 0.770817
C77   C     C_R   0.000000 0.500000 0.834281 0.770820
C78   C     C_R   0.000000 0.500000 0.165719 0.770819
C79   C     C_R   0.500000 0.000000 0.834282 0.770836
C80   C     C_R   0.500000 0.000000 0.165719 0.770833
C81   C     C_R   0.599053 0.099053 0.250000 0.828152
C82   C     C_R   0.400947 0.900947 0.750000 0.828179
C83   C     C_R   0.900949 0.599051 0.250000 0.824287
C84   C     C_R   0.099051 0.400949 0.750000 0.824395
C85   C     C_R   0.400947 0.900947 0.250000 0.828154
C86   C     C_R   0.599053 0.099053 0.750000 0.828141
C87   C     C_R   0.099051 0.400949 0.250000 0.824268
C88   C     C_R   0.900949 0.599051 0.750000 0.824368
C89   C     C_R   0.599051 0.900949 0.750000 0.824370
C90   C     C_R   0.400949 0.099051 0.250000 0.824280
C91   C     C_R   0.900947 0.400947 0.750000 0.828141
C92   C     C_R   0.099053 0.599053 0.250000 0.828156
C93   C     C_R   0.400949 0.099051 0.750000 0.824396
C94   C     C_R   0.599051 0.900949 0.250000 0.824298
C95   C     C_R   0.099053 0.599053 0.750000 0.828178
C96   C     C_R   0.900947 0.400947 0.250000 0.828154
H1    H     H_    0.259685 0.191782 0.295725 0.166351
H2    H     H_    0.744814 0.812717 0.706172 0.165530
H3    H     H_    0.818371 0.249524 0.290824 0.157573
H4    H     H_    0.180248 0.751857 0.710030 0.157460
H5    H     H_    0.741006 0.808909 0.295459 0.166236
H6    H     H_    0.253793 0.185890 0.706843 0.165239
H7    H     H_    0.181574 0.750531 0.290791 0.157570
H8    H     H_    0.817259 0.250636 0.708525 0.157542
H9    H     H_    0.248143 0.819753 0.710030 0.157451
H10   H     H_    0.750475 0.181629 0.290824 0.157565
H11   H     H_    0.812716 0.744815 0.706171 0.165528
H12   H     H_    0.191782 0.259684 0.295725 0.166358
H13   H     H_    0.749364 0.182740 0.708525 0.157546
H14   H     H_    0.249469 0.818427 0.290791 0.157570
H15   H     H_    0.185890 0.253792 0.706843 0.165254
H16   H     H_    0.808908 0.741006 0.295459 0.166244
H17   H     H_    0.755186 0.687283 0.793829 0.165549
H18   H     H_    0.240315 0.308218 0.204275 0.166364
H19   H     H_    0.319752 0.748142 0.789970 0.157471
H20   H     H_    0.681629 0.250476 0.209176 0.157580
H21   H     H_    0.246207 0.314110 0.793157 0.165260
H22   H     H_    0.758994 0.691091 0.204541 0.166249
H23   H     H_    0.682741 0.249364 0.791475 0.157554
H24   H     H_    0.318426 0.749469 0.209209 0.157577
H25   H     H_    0.749525 0.318371 0.209176 0.157574
H26   H     H_    0.251857 0.680247 0.789970 0.157463
H27   H     H_    0.308218 0.240315 0.204275 0.166367
H28   H     H_    0.687283 0.755185 0.793829 0.165545
H29   H     H_    0.250531 0.681573 0.209209 0.157579
H30   H     H_    0.750636 0.317260 0.791475 0.157557
H31   H     H_    0.691092 0.758993 0.204540 0.166252
H32   H     H_    0.314110 0.246208 0.793157 0.165274
C97   C     C_R   0.217087 0.255617 0.275719 -0.148136
C98   C     C_R   0.785444 0.746914 0.725348 -0.148011
C99   C     C_R   0.750097 0.211374 0.272962 -0.156281
C100  C     C_R   0.249126 0.789403 0.727519 -0.156362
C101  C     C_R   0.783301 0.744772 0.275569 -0.148112
C102  C     C_R   0.213772 0.252302 0.725726 -0.147927
C103  C     C_R   0.249871 0.788657 0.272943 -0.156269
C104  C     C_R   0.749472 0.212000 0.726672 -0.156357
C105  C     C_R   0.210598 0.750875 0.727519 -0.156344
C106  C     C_R   0.788625 0.249902 0.272962 -0.156270
C107  C     C_R   0.746913 0.785444 0.725348 -0.147982
C108  C     C_R   0.255617 0.217086 0.275719 -0.148131
C109  C     C_R   0.788000 0.250527 0.726672 -0.156369
C110  C     C_R   0.211343 0.750129 0.272943 -0.156274
C111  C     C_R   0.252303 0.213772 0.725726 -0.147950
C112  C     C_R   0.744771 0.783302 0.275569 -0.148104
C113  C     C_R   0.714556 0.753086 0.774652 -0.148009
C114  C     C_R   0.282913 0.244383 0.224281 -0.148135
C115  C     C_R   0.250875 0.710597 0.772481 -0.156352
C116  C     C_R   0.749902 0.288626 0.227038 -0.156278
C117  C     C_R   0.286228 0.247698 0.774274 -0.147924
C118  C     C_R   0.716698 0.755228 0.224431 -0.148107
C119  C     C_R   0.750528 0.288000 0.773328 -0.156349
C120  C     C_R   0.250129 0.711343 0.227057 -0.156262
C121  C     C_R   0.711375 0.250098 0.227038 -0.156266
C122  C     C_R   0.289402 0.749125 0.772481 -0.156335
C123  C     C_R   0.244383 0.282913 0.224281 -0.148131
C124  C     C_R   0.753086 0.714556 0.774652 -0.147981
C125  C     C_R   0.288657 0.749871 0.227057 -0.156269
C126  C     C_R   0.712000 0.249473 0.773328 -0.156361
C127  C     C_R   0.755229 0.716698 0.224431 -0.148105
C128  C     C_R   0.247697 0.286228 0.774274 -0.147947
C129  C     C_R   0.211394 0.288606 0.250000 0.138581
C130  C     C_R   0.788606 0.711394 0.750000 0.139301
C131  C     C_R   0.711396 0.211396 0.250000 0.147531
C132  C     C_R   0.288604 0.788604 0.750000 0.147663
C133  C     C_R   0.788606 0.711394 0.250000 0.138678
C134  C     C_R   0.211395 0.288605 0.750000 0.139553
C135  C     C_R   0.288604 0.788604 0.250000 0.147530
C136  C     C_R   0.711396 0.211396 0.750000 0.147546
C137  C     C_R   0.211396 0.711396 0.750000 0.147662
C138  C     C_R   0.788604 0.288604 0.250000 0.147530
C139  C     C_R   0.711394 0.788606 0.750000 0.139302
C140  C     C_R   0.288606 0.211394 0.250000 0.138583
C141  C     C_R   0.788604 0.288604 0.750000 0.147546
C142  C     C_R   0.211396 0.711396 0.250000 0.147529
C143  C     C_R   0.288606 0.211395 0.750000 0.139553
C144  C     C_R   0.711394 0.788606 0.250000 0.138679
C145  C     C_R   0.460865 0.027629 0.114967 -0.140380
C146  C     C_R   0.539111 0.972333 0.885035 -0.140519
C147  C     C_R   0.972410 0.539165 0.114968 -0.140393
C148  C     C_R   0.027618 0.460858 0.885034 -0.140567
C149  C     C_R   0.539137 0.972371 0.114967 -0.140405
C150  C     C_R   0.460899 0.027674 0.885035 -0.140578
C151  C     C_R   0.027595 0.460842 0.114967 -0.140375
C152  C     C_R   0.972384 0.539146 0.885033 -0.140505
C153  C     C_R   0.960827 0.527577 0.614968 -0.140505
C154  C     C_R   0.039151 0.472393 0.385033 -0.140376
C155  C     C_R   0.472484 0.039215 0.614969 -0.140543
C156  C     C_R   0.527505 0.960777 0.385030 -0.140376
C157  C     C_R   0.039172 0.472423 0.614968 -0.140556
C158  C     C_R   0.960846 0.527604 0.385033 -0.140398
C159  C     C_R   0.527516 0.960784 0.614969 -0.140484
C160  C     C_R   0.472495 0.039223 0.385031 -0.140352
C161  C     C_2   0.419806 0.056546 0.132393 0.553914
H33   H     H_    0.407310 0.043142 0.155112 0.025927
O53   O     O_2   0.400472 0.096376 0.122021 -0.483174
C162  C     C_2   0.580142 0.943376 0.867609 0.554079
H34   H     H_    0.592661 0.956774 0.844893 0.026020
O54   O     O_2   0.599428 0.903520 0.877978 -0.482888
C163  C     C_2   0.943530 0.580248 0.132397 0.553857
H35   H     H_    0.956931 0.592714 0.155122 0.025917
O55   O     O_2   0.903731 0.599639 0.122019 -0.483121
C164  C     C_2   0.056525 0.419793 0.867607 0.554084
H36   H     H_    0.043122 0.407303 0.844887 0.025984
O56   O     O_2   0.096350 0.400447 0.877980 -0.482770
C165  C     C_2   0.580195 0.943454 0.132395 0.553940
H37   H     H_    0.592690 0.956858 0.155114 0.025935
O57   O     O_2   0.599530 0.903624 0.122023 -0.483131
C166  C     C_2   0.419872 0.056637 0.867610 0.554234
H38   H     H_    0.407336 0.043231 0.844900 0.026038
O58   O     O_2   0.400611 0.096510 0.877974 -0.482798
C167  C     C_2   0.056478 0.419760 0.132395 0.553875
H39   H     H_    0.043071 0.407285 0.155118 0.025892
O59   O     O_2   0.096285 0.400383 0.122020 -0.483168
C168  C     C_2   0.943478 0.580212 0.867605 0.554029
H40   H     H_    0.956879 0.592697 0.844884 0.025997
O60   O     O_2   0.903658 0.599565 0.877980 -0.482884
C169  C     C_2   0.919734 0.556443 0.632397 0.553953
H41   H     H_    0.907275 0.543039 0.655123 0.025944
O61   O     O_2   0.900329 0.596234 0.622019 -0.482867
C170  C     C_2   0.080223 0.443497 0.367606 0.553892
H42   H     H_    0.092705 0.456900 0.344884 0.025915
O62   O     O_2   0.099584 0.403680 0.377980 -0.483175
C171  C     C_2   0.443674 0.080346 0.632399 0.553921
H43   H     H_    0.457078 0.092764 0.655133 0.025914
O63   O     O_2   0.403927 0.099830 0.622013 -0.482746
C172  C     C_2   0.556303 0.919638 0.367600 0.553739
H44   H     H_    0.542900 0.907229 0.344864 0.025852
O64   O     O_2   0.596041 0.900137 0.377987 -0.483106
C173  C     C_2   0.080265 0.443557 0.632396 0.554033
H45   H     H_    0.092724 0.456960 0.655122 0.025985
O65   O     O_2   0.099669 0.403765 0.622018 -0.482767
C174  C     C_2   0.919773 0.556499 0.367605 0.553892
H46   H     H_    0.907296 0.543098 0.344882 0.025929
O66   O     O_2   0.900404 0.596310 0.377981 -0.483128
C175  C     C_2   0.556326 0.919653 0.632399 0.553883
H47   H     H_    0.542922 0.907235 0.655133 0.025922
O67   O     O_2   0.596073 0.900170 0.622013 -0.482862
C176  C     C_2   0.443696 0.080362 0.367600 0.553716
H48   H     H_    0.457100 0.092771 0.344864 0.025837
O68   O     O_2   0.403958 0.099861 0.377987 -0.483146
N17   N     N_R   0.420485 0.053615 0.065212 0.250501
O69   O     O_R   0.372165 0.039052 0.068033 -0.301282
O70   O     O_R   0.432312 0.090839 0.045936 -0.292168
N18   N     N_R   0.579468 0.946310 0.934790 0.250494
O71   O     O_R   0.627804 0.960820 0.931963 -0.301223
O72   O     O_R   0.567605 0.909108 0.954072 -0.292191
N19   N     N_R   0.946470 0.579577 0.065214 0.250511
O73   O     O_R   0.961090 0.627881 0.068033 -0.301243
O74   O     O_R   0.909232 0.567791 0.045939 -0.292181
N20   N     N_R   0.053587 0.420467 0.934789 0.250503
O75   O     O_R   0.039012 0.372150 0.931963 -0.301183
O76   O     O_R   0.090806 0.432280 0.954070 -0.292162
N21   N     N_R   0.579519 0.946385 0.065213 0.250500
O77   O     O_R   0.627840 0.960948 0.068036 -0.301282
O78   O     O_R   0.567693 0.909161 0.045937 -0.292169
N22   N     N_R   0.420548 0.053707 0.934790 0.250486
O79   O     O_R   0.372207 0.039218 0.931955 -0.301161
O80   O     O_R   0.432418 0.090899 0.954078 -0.292201
N23   N     N_R   0.053539 0.420435 0.065213 0.250505
O81   O     O_R   0.038931 0.372128 0.068036 -0.301282
O82   O     O_R   0.090773 0.432225 0.045935 -0.292167
N24   N     N_R   0.946418 0.579541 0.934788 0.250503
O83   O     O_R   0.960998 0.627857 0.931963 -0.301158
O84   O     O_R   0.909196 0.567730 0.954068 -0.292203
N25   N     N_R   0.920404 0.553499 0.565214 0.250508
O85   O     O_R   0.872105 0.538863 0.568035 -0.301189
O86   O     O_R   0.932175 0.590741 0.545938 -0.292155
N26   N     N_R   0.079553 0.446440 0.434789 0.250507
O87   O     O_R   0.127864 0.461030 0.431961 -0.301241
O88   O     O_R   0.067752 0.409218 0.454071 -0.292216
N27   N     N_R   0.446640 0.079688 0.565213 0.250522
O89   O     O_R   0.461360 0.127961 0.568039 -0.301131
O90   O     O_R   0.409386 0.067984 0.545933 -0.292157
N28   N     N_R   0.553338 0.920297 0.434785 0.250525
O91   O     O_R   0.538602 0.872029 0.431963 -0.301199
O92   O     O_R   0.590600 0.931991 0.454064 -0.292189
N29   N     N_R   0.079593 0.446501 0.565213 0.250508
O93   O     O_R   0.127892 0.461137 0.568034 -0.301105
O94   O     O_R   0.067822 0.409260 0.545937 -0.292161
N30   N     N_R   0.920442 0.553555 0.434788 0.250509
O95   O     O_R   0.872132 0.538957 0.431963 -0.301237
O96   O     O_R   0.932240 0.590780 0.454069 -0.292209
N31   N     N_R   0.553360 0.920312 0.565214 0.250519
O97   O     O_R   0.538641 0.872039 0.568039 -0.301111
O98   O     O_R   0.590614 0.932016 0.545933 -0.292195
N32   N     N_R   0.446662 0.079702 0.434786 0.250525
O99   O     O_R   0.461397 0.127971 0.431963 -0.301226
O100  O     O_R   0.409401 0.068008 0.454064 -0.292177

loop_
_geom_bond_atom_site_label_1
_geom_bond_atom_site_label_2
_geom_bond_distance
_ccdc_geom_bond_type
H13   C104  1.083460 S    
C176  O68   1.220929 D    
Zn12  O21   1.908518 S    
Zn13  O31   1.908524 S    
C99   C131  1.401150 A    
C33   C45   1.410632 A    
Zn14  O23   1.908349 S    
C40   C52   1.410640 A    
N16   C67   1.357275 A    
O16   C80   1.272254 A    
C29   C86   1.434079 S    
Zn1   O51   1.908522 S    
Zn12  O1    1.924478 S    
C117  C143  1.401141 A    
Zn13  O12   1.924459 S    
C169  H41   1.084928 S    
O15   C79   1.272269 A    
C21   C94   1.433889 S    
H2    C107  1.083479 S    
C59   C151  1.417472 A    
N12   C67   1.357276 A    
C54   C158  1.413355 A    
C62   C154  1.417487 A    
C64   C160  1.417465 A    
O42   C92   1.272590 A    
O43   C89   1.272574 A    
O36   C96   1.272592 A    
H20   C121  1.083459 S    
O46   C88   1.272574 A    
C36   C48   1.410623 A    
Zn5   O40   1.908347 S    
C5    C32   1.205266 T    
C6    C31   1.205260 T    
C7    C30   1.205351 T    
C38   C50   1.410625 A    
C149  C165  1.491272 S    
C102  C134  1.401138 A    
Zn5   O1    1.924475 S    
N11   N16   1.331109 A    
Zn9   O4    1.924473 S    
C40   C56   1.410646 A    
Zn10  O3    1.924473 S    
Zn5   O47   1.908524 S    
N21   O77   1.301135 A    
O20   C80   1.272256 A    
Zn7   O45   1.908346 S    
C172  O64   1.220927 D    
Zn15  O6    1.924460 S    
Zn16  O1    1.924480 S    
H7    C110  1.083460 S    
H5    C112  1.083486 S    
C13   C141  1.438885 S    
C174  H46   1.084920 S    
C63   C74   1.478715 S    
C118  C144  1.401148 A    
Zn7   O14   1.924460 S    
Zn14  O11   1.924459 S    
H9    C100  1.083460 S    
O39   C93   1.272576 A    
C40   C67   1.476869 S    
N27   O89   1.301142 A    
N26   O87   1.301137 A    
O34   C94   1.272573 A    
H30   C119  1.083460 S    
C34   C69   1.476795 S    
C44   C148  1.413354 A    
C12   C17   1.205268 T    
C104  C136  1.401150 A    
C10   C138  1.438885 S    
C168  H40   1.084923 S    
H19   C122  1.083460 S    
C108  C140  1.401146 A    
C57   C149  1.417482 A    
H26   C115  1.083462 S    
C64   C156  1.417464 A    
C49   C153  1.413359 A    
H14   C103  1.083461 S    
Zn13  O24   1.908347 S    
C100  C132  1.401152 A    
C51   C155  1.413373 A    
C120  C142  1.401149 A    
C64   C73   1.478702 S    
C52   C156  1.413373 A    
C148  C164  1.491269 S    
C166  O58   1.220937 D    
C164  O56   1.220935 D    
H3    C106  1.083462 S    
H29   C120  1.083464 S    
C9    C20   1.205351 T    
C10   C19   1.205353 T    
O17   C77   1.272259 A    
Zn11  O2    1.924483 S    
C150  C166  1.491249 S    
O50   C84   1.272576 A    
C157  C173  1.491281 S    
O51   C81   1.272590 A    
C122  C132  1.401153 A    
C175  O67   1.220930 D    
N25   O85   1.301133 A    
C125  C135  1.401151 A    
N32   O99   1.301137 A    
Zn11  O22   1.908520 S    
C45   N21   1.436360 S    
C167  O59   1.220924 D    
N10   C65   1.357263 A    
C160  C176  1.491299 S    
C6    C134  1.438755 S    
C46   C150  1.413344 A    
H11   C98   1.083477 S    
C97   C108  1.398594 A    
C173  O65   1.220925 D    
N2    C69   1.357257 A    
N30   O95   1.301136 A    
C121  C131  1.401156 A    
C43   N19   1.436354 S    
N17   O70   1.301226 A    
C152  C168  1.491272 S    
Zn2   O2    1.924473 S    
H6    C111  1.083474 S    
C59   C147  1.417479 A    
C155  C171  1.491290 S    
Zn11  O10   1.924459 S    
H10   C99   1.083464 S    
Zn8   O4    1.924480 S    
C49   N25   1.436357 S    
N13   C66   1.357268 A    
C26   C81   1.434079 S    
O37   C95   1.272590 A    
C170  O62   1.220936 D    
C22   C93   1.433896 S    
O23   C83   1.272573 A    
C161  H33   1.084928 S    
O24   C84   1.272576 A    
C114  C123  1.398594 A    
C101  C133  1.401148 A    
N12   N15   1.331109 A    
C55   C159  1.413373 A    
N9    C66   1.357269 A    
C156  C172  1.491297 S    
H4    C105  1.083458 S    
C105  C137  1.401154 A    
C56   N32   1.436353 S    
N1    C70   1.357266 A    
C16   C144  1.438744 S    
C162  H34   1.084924 S    
C36   C44   1.410623 A    
N4    C71   1.357264 A    
C9    C137  1.438884 S    
N20   O75   1.301139 A    
C101  C112  1.398590 A    
O44   C90   1.272574 A    
Zn7   O42   1.908519 S    
N3    C72   1.357268 A    
C120  C125  1.398650 A    
C151  C167  1.491278 S    
Zn10  O7    1.924459 S    
O47   C85   1.272589 A    
Zn10  O27   1.908347 S    
C35   C72   1.476838 S    
N24   O84   1.301215 A    
C1    C129  1.438747 S    
C25   C82   1.434077 S    
C38   C54   1.410625 A    
C165  H37   1.084933 S    
Zn9   O8    1.924459 S    
C16   C21   1.205266 T    
Zn6   O2    1.924470 S    
N28   O92   1.301214 A    
C17   C90   1.433885 S    
Zn12  O9    1.924459 S    
C158  C174  1.491280 S    
Zn6   O19   1.924459 S    
N27   O90   1.301206 A    
C59   C78   1.478732 S    
N23   O82   1.301231 A    
C116  C121  1.398648 A    
C57   C80   1.478745 S    
C58   C79   1.478771 S    
Zn1   O16   1.924459 S    
H12   C97   1.083486 S    
Zn2   O15   1.924459 S    
O25   C85   1.272592 A    
C14   C142  1.438885 S    
N18   O71   1.301135 A    
C48   C152  1.413354 A    
C112  C144  1.401147 A    
H24   C125  1.083460 S    
O35   C95   1.272590 A    
C126  C136  1.401153 A    
O33   C93   1.272576 A    
C153  C169  1.491282 S    
C31   C84   1.433898 S    
Zn15  O29   1.908346 S    
C32   C83   1.433887 S    
C33   C70   1.476826 S    
C13   C24   1.205353 T    
O7    C75   1.272254 A    
C14   C23   1.205353 T    
C53   N29   1.436355 S    
C103  C110  1.398648 A    
Zn2   O43   1.908347 S    
O21   C81   1.272592 A    
C98   C107  1.398599 A    
O19   C79   1.272263 A    
C145  C161  1.491270 S    
C57   C145  1.417483 A    
C163  H35   1.084926 S    
C58   C150  1.417498 A    
C103  C135  1.401154 A    
Zn8   O41   1.908521 S    
C61   C76   1.478728 S    
C50   C154  1.413354 A    
C127  C133  1.401149 A    
C61   C157  1.417469 A    
C39   C55   1.410636 A    
C110  C142  1.401154 A    
N2    N5    1.331109 A    
C44   N20   1.436365 S    
H23   C126  1.083459 S    
C37   C66   1.476843 S    
N29   O94   1.301217 A    
H21   C128  1.083474 S    
C115  C122  1.398648 A    
N22   O80   1.301222 A    
C114  C140  1.401147 A    
Zn5   O20   1.924459 S    
C37   C53   1.410636 A    
C33   C41   1.410635 A    
O18   C78   1.272259 A    
C35   C43   1.410635 A    
C100  C105  1.398648 A    
C7    C135  1.438885 S    
C113  C139  1.401144 A    
O11   C75   1.272256 A    
C159  C175  1.491292 S    
N26   O88   1.301220 A    
Zn9   O28   1.908349 S    
C62   C158  1.417487 A    
C41   N17   1.436358 S    
H28   C113  1.083477 S    
C106  C138  1.401152 A    
C176  H48   1.084927 S    
C47   N23   1.436356 S    
N1    N6    1.331109 A    
C20   C95   1.434079 S    
Zn3   O38   1.908520 S    
C124  C130  1.401140 A    
N10   N13   1.331113 A    
C37   C49   1.410638 A    
C168  O60   1.220934 D    
N4    N7    1.331113 A    
C39   C51   1.410633 A    
N21   O78   1.301221 A    
C47   C151  1.413354 A    
H16   C101  1.083487 S    
C169  O61   1.220927 D    
N3    N8    1.331113 A    
C48   N24   1.436364 S    
C171  H43   1.084925 S    
O12   C76   1.272252 A    
C8    C136  1.438885 S    
C116  C138  1.401153 A    
C46   N22   1.436374 S    
C167  H39   1.084929 S    
Zn3   O3    1.924483 S    
C154  C170  1.491271 S    
C28   C87   1.433887 S    
C35   C47   1.410638 A    
N19   O73   1.301135 A    
N14   C65   1.357263 A    
Zn3   O49   1.908343 S    
C117  C128  1.398601 A    
Zn14  O3    1.924470 S    
C146  C162  1.491261 S    
C60   C152  1.417488 A    
Zn8   O46   1.908344 S    
N31   O98   1.301208 A    
N22   O79   1.301137 A    
C34   C46   1.410614 A    
N9    N14   1.331113 A    
N6    C69   1.357259 A    
N11   C68   1.357273 A    
Zn1   O44   1.908349 S    
C34   C42   1.410615 A    
Zn3   O18   1.924459 S    
O41   C91   1.272590 A    
C50   N26   1.436365 S    
C99   C106  1.398648 A    
C102  C111  1.398601 A    
C172  H44   1.084926 S    
O45   C87   1.272574 A    
O29   C89   1.272574 A    
N32   O100  1.301218 A    
C30   C85   1.434079 S    
H27   C114  1.083483 S    
C15   C22   1.205262 T    
C123  C129  1.401147 A    
C1    C28   1.205266 T    
Zn7   O3    1.924480 S    
C18   C89   1.433892 S    
C2    C27   1.205264 T    
C173  H45   1.084926 S    
O14   C78   1.272253 A    
H22   C127  1.083487 S    
C60   C77   1.478753 S    
N30   O96   1.301217 A    
N5    C70   1.357265 A    
C60   C148  1.417484 A    
N17   O69   1.301133 A    
C115  C137  1.401152 A    
C53   C157  1.413363 A    
N8    C71   1.357263 A    
C109  C141  1.401153 A    
C175  H47   1.084924 S    
Zn15  O26   1.908519 S    
C63   C155  1.417468 A    
C62   C75   1.478745 S    
C15   C143  1.438755 S    
C11   C139  1.438755 S    
O40   C94   1.272573 A    
N23   O81   1.301132 A    
Zn4   O50   1.908345 S    
C163  O55   1.220930 D    
N31   O97   1.301139 A    
C4    C25   1.205353 T    
C3    C131  1.438885 S    
Zn11  O33   1.908343 S    
C128  C134  1.401140 A    
Zn4   O4    1.924478 S    
O13   C77   1.272262 A    
C8    C29   1.205351 T    
C166  H38   1.084927 S    
C162  O54   1.220940 D    
C55   N31   1.436361 S    
O22   C82   1.272590 A    
C5    C133  1.438747 S    
Zn4   O17   1.924459 S    
H17   C124  1.083478 S    
N20   O76   1.301217 A    
C52   N28   1.436353 S    
Zn13  O4    1.924475 S    
C147  C163  1.491282 S    
C58   C146  1.417499 A    
O52   C82   1.272590 A    
Zn15  O2    1.924480 S    
Zn16  O5    1.924460 S    
C54   N30   1.436361 S    
Zn14  O32   1.908522 S    
C111  C143  1.401137 A    
C118  C127  1.398592 A    
Zn2   O52   1.908525 S    
N25   O86   1.301222 A    
C38   C65   1.476821 S    
O48   C86   1.272589 A    
H1    C108  1.083485 S    
O28   C88   1.272574 A    
C11   C18   1.205262 T    
C42   C146  1.413346 A    
Zn16  O25   1.908521 S    
O31   C91   1.272592 A    
O32   C92   1.272592 A    
N18   O72   1.301221 A    
H8    C109  1.083461 S    
O10   C74   1.272251 A    
C164  H36   1.084925 S    
Zn4   O37   1.908518 S    
O49   C83   1.272573 A    
Zn6   O39   1.908349 S    
C171  O63   1.220930 D    
C119  C126  1.398648 A    
C63   C159  1.417465 A    
O6    C74   1.272249 A    
C2    C130  1.438751 S    
C119  C141  1.401150 A    
O38   C96   1.272590 A    
Zn12  O34   1.908345 S    
C98   C130  1.401144 A    
C113  C124  1.398599 A    
N19   O74   1.301222 A    
C43   C147  1.413359 A    
H32   C117  1.083474 S    
C39   C68   1.476860 S    
C170  H42   1.084926 S    
Zn9   O35   1.908522 S    
Zn6   O48   1.908522 S    
C161  O53   1.220931 D    
O27   C87   1.272574 A    
C174  O66   1.220936 D    
C42   N18   1.436363 S    
C19   C96   1.434077 S    
O9    C73   1.272248 A    
C12   C140  1.438749 S    
C23   C92   1.434077 S    
C24   C91   1.434077 S    
C27   C88   1.433892 S    
C3    C26   1.205351 T    
N29   O93   1.301136 A    
Zn8   O13   1.924460 S    
O5    C73   1.272247 A    
H31   C118  1.083490 S    
N15   C68   1.357274 A    
C51   N27   1.436360 S    
O8    C76   1.272250 A    
C56   C160  1.413369 A    
N24   O83   1.301137 A    
Zn1   O1    1.924473 S    
N7    C72   1.357264 A    
Zn10  O36   1.908525 S    
C165  O57   1.220928 D    
C104  C109  1.398646 A    
Zn16  O30   1.908344 S    
N28   O91   1.301137 A    
C45   C149  1.413349 A    
O26   C86   1.272592 A    
C61   C153  1.417473 A    
H18   C123  1.083485 S    
C107  C139  1.401138 A    
C36   C71   1.476817 S    
C4    C132  1.438885 S    
O30   C90   1.272574 A    
C97   C129  1.401144 A    
H25   C116  1.083459 S    
C41   C145  1.413349 A    
H15   C102  1.083474 S    
