data_mof_unit_pretest_381.cif
_audit_creation_date              2012-12-10T19:48:33-0500
_audit_creation_method            fapswitch 2.2
_symmetry_space_group_name_H-M    P1
_symmetry_Int_Tables_number       1
_space_group_crystal_system       triclinic
_cell_length_a                    13.083288
_cell_length_b                    14.172786
_cell_length_c                    14.881191
_cell_angle_alpha                 90.138597
_cell_angle_beta                  90.085043
_cell_angle_gamma                 69.349681
_cell_volume                      2582.0721303

loop_
_atom_site_label
_atom_site_type_symbol
_atom_type_description
_atom_site_fract_x
_atom_site_fract_y
_atom_site_fract_z
_atom_type_partial_charge
C1    C     C_R   0.500775 0.499835 0.672589 0.854498
C2    C     C_R   0.825562 0.404175 0.492464 -0.178760
C3    C     C_R   0.521478 0.422371 0.913464 -0.142789
C4    C     C_R   0.705344 0.443222 0.496755 0.859518
C5    C     C_R   0.544635 0.417795 0.822503 0.431190
C6    C     C_R   0.490668 0.503216 0.768962 -0.145944
C7    C     C_R   0.417811 0.591659 0.807508 -0.239156
C8    C     C_R   0.397044 0.595605 0.898692 -0.172279
C9    C     C_R   0.448623 0.510889 0.951386 -0.002717
C10   C     C_R   0.476145 0.588721 0.090333 -0.205467
C11   C     C_R   0.495067 0.583203 0.181798 -0.206337
C12   C     C_R   0.985596 0.453404 0.490952 0.104714
C13   C     C_R   0.478435 0.506335 0.231425 -0.123289
C14   C     C_R   0.437082 0.438281 0.190168 -0.190824
C15   C     C_R   0.415655 0.444223 0.098767 0.454452
C16   C     C_R   0.496836 0.500879 0.327287 0.880099
C17   C     C_R   0.439719 0.517975 0.048141 0.002717
C18   C     C_R   0.435324 0.915805 0.561301 -0.274428
C19   C     C_R   0.436767 0.816053 0.560066 0.021104
C20   C     C_R   0.562766 0.775145 0.439917 0.041382
C21   C     C_R   0.564190 0.873892 0.439132 -0.282816
C22   C     C_R   0.499705 0.946667 0.500285 0.137658
C23   C     C_R   0.878707 0.468927 0.461410 0.067627
C24   C     C_R   0.512913 0.100509 0.420065 -0.287726
C25   C     C_R   0.513078 0.199691 0.421480 0.011225
C26   C     C_R   0.486017 0.209056 0.578580 0.060974
C27   C     C_R   0.485623 0.109957 0.580153 -0.293978
C28   C     C_R   0.295309 0.556323 0.500127 0.870223
C29   C     C_R   0.499370 0.053406 0.500178 0.129351
C30   C     C_R   0.024291 0.681079 0.394398 -0.202398
C31   C     C_R   0.177658 0.592735 0.489430 -0.177903
C32   C     C_R   0.888674 0.309502 0.530222 -0.005915
C33   C     C_R   0.000003 0.287278 0.545201 -0.221883
C34   C     C_R   0.028624 0.530883 0.477414 0.039606
C35   C     C_R   0.047538 0.358794 0.527944 -0.116280
C36   C     C_R   0.843335 0.230510 0.552354 0.139815
C37   C     C_R   0.814707 0.176760 0.483299 -0.106158
C38   C     C_R   0.776898 0.098639 0.504117 -0.134653
C39   C     C_R   0.767267 0.073890 0.593771 -0.111829
C40   C     C_R   0.796108 0.126806 0.662764 -0.106762
C41   C     C_R   0.835004 0.204329 0.642212 -0.170132
C42   C     C_R   0.975875 0.610398 0.416608 0.107734
C43   C     C_R   0.876870 0.616838 0.377385 -0.229518
C44   C     C_R   0.828006 0.547856 0.400462 -0.190250
C45   C     C_R   0.121572 0.532766 0.523374 0.375840
C46   C     C_R   0.127393 0.669544 0.427739 -0.243153
H1    H     H_    0.170077 0.716764 0.401853 0.174763
H2    H     H_    0.836403 0.676021 0.329748 0.138153
H3    H     H_    0.616648 0.892424 0.391538 0.128734
H4    H     H_    0.522096 0.061667 0.356239 0.140718
H5    H     H_    0.523922 0.234150 0.359260 0.130849
H6    H     H_    0.475650 0.250842 0.640799 0.156201
H7    H     H_    0.476558 0.077502 0.644053 0.142003
H8    H     H_    0.985828 0.740886 0.346797 0.146868
H9    H     H_    0.134484 0.336246 0.538951 0.200814
H10   H     H_    0.050159 0.214494 0.571787 0.152809
H11   H     H_    0.751980 0.554478 0.367569 0.149494
H12   H     H_    0.375478 0.657109 0.766721 0.160377
H13   H     H_    0.564279 0.358186 0.955542 0.173847
H14   H     H_    0.652487 0.345894 0.733380 0.332920
H15   H     H_    0.345869 0.398599 0.000635 0.339833
H16   H     H_    0.207113 0.502358 0.634301 0.330996
H17   H     H_    0.822292 0.195067 0.413588 0.118761
H18   H     H_    0.755139 0.057220 0.450758 0.131065
H19   H     H_    0.737616 0.013624 0.609743 0.138079
H20   H     H_    0.788897 0.107394 0.732164 0.156356
H21   H     H_    0.858356 0.244085 0.696128 0.144244
H22   H     H_    0.341858 0.664597 0.928426 0.150124
H23   H     H_    0.495884 0.644694 0.051626 0.157767
H24   H     H_    0.525642 0.637086 0.213148 0.159170
H25   H     H_    0.420163 0.380846 0.228964 0.172953
H26   H     H_    0.382696 0.968578 0.608905 0.136524
H27   H     H_    0.386712 0.793478 0.607066 0.119066
H28   H     H_    0.612109 0.720464 0.392210 0.114274
N1    N     N_R   0.500000 0.747530 0.500020 -0.089197
N2    N     N_R   0.499940 0.252470 0.500020 -0.087231
O1    O     O_R   0.499990 0.420530 0.630930 -0.614863
O2    O     O_3   0.373996 0.375918 0.061651 -0.777394
O3    O     O_3   0.155204 0.477822 0.601632 -0.786632
O4    O     O_R   0.499990 0.579480 0.630940 -0.611809
O5    O     O_R   0.653620 0.381060 0.499970 -0.600979
O6    O     O_R   0.653620 0.540010 0.499980 -0.603406
O7    O     O_R   0.500010 0.420520 0.369060 -0.635509
O8    O     O_R   0.500010 0.579470 0.369070 -0.627717
O9    O     O_R   0.346380 0.459990 0.500020 -0.586856
O10   O     O_R   0.346380 0.618940 0.500030 -0.616185
O11   O     O_3   0.621809 0.330465 0.789805 -0.784185
Zn1   Zn    Zn3+2 0.500000 0.393860 0.499990 0.957538
Zn2   Zn    Zn3+2 0.500000 0.606140 0.500010 0.940286

loop_
_geom_bond_atom_site_label_1
_geom_bond_atom_site_label_2
_ccdc_geom_bond_type
C22   C29   S    
C27   C29   A    
C1    O1    A    
C14   H25   S    
C34   C42   A    
C21   H3    S    
C11   H24   S    
C7    C8    A    
C41   H21   S    
C30   H8    S    
C12   C23   A    
C26   C27   A    
O6    Zn2   S    
C32   C36   S    
C36   C37   A    
C5    C6    A    
C15   O2    S    
C10   C17   A    
C16   O8    A    
C2    C32   A    
C18   C19   A    
O4    Zn2   S    
C24   C29   A    
C4    O5    A    
O1    Zn1   S    
C8    C9    A    
C31   C46   A    
C26   N2    A    
C43   H2    S    
N2    Zn1   S    
C7    H12   S    
C33   H10   S    
O7    Zn1   S    
C40   H20   S    
C21   C22   A    
C18   H26   S    
C39   H19   S    
C36   C41   A    
C37   H17   S    
H14   O11   S    
C38   H18   S    
C24   H4    S    
C35   H9    S    
C1    C6    S    
H16   O3    S    
C19   H27   S    
C24   C25   A    
C39   C40   A    
C16   O7    A    
C23   C44   A    
C20   N1    A    
C2    C4    S    
C43   C44   A    
C25   H5    S    
C37   C38   A    
C3    C9    A    
C26   H6    S    
H15   O2    S    
C20   H28   S    
C45   O3    S    
C34   C45   A    
C12   C35   A    
C9    C17   S    
C40   C41   A    
C8    H22   S    
C28   O10   A    
O8    Zn2   S    
C12   C34   A    
C28   O9    A    
O9    Zn1   S    
C15   C17   A    
C46   H1    S    
C18   C22   A    
C30   C46   A    
C28   C31   S    
C3    C5    A    
O10   Zn2   S    
C27   H7    S    
C31   C45   A    
C6    C7    A    
C25   N2    A    
C32   C33   A    
C19   N1    A    
C11   C13   A    
C38   C39   A    
C33   C35   A    
O5    Zn1   S    
C10   C11   A    
N1    Zn2   S    
C5    O11   S    
C10   H23   S    
C4    O6    A    
C20   C21   A    
C42   C43   A    
C13   C16   S    
C2    C23   A    
C1    O4    A    
C14   C15   A    
C30   C42   A    
C13   C14   A    
C44   H11   S    
C3    H13   S    
