data_mof_unit_pretest_283.cif
_audit_creation_date              2012-12-11T14:04:25-0500
_audit_creation_method            fapswitch 2.2
_symmetry_space_group_name_H-M    P1
_symmetry_Int_Tables_number       1
_space_group_crystal_system       triclinic
_cell_length_a                    19.300817
_cell_length_b                    11.046072
_cell_length_c                    18.981222
_cell_angle_alpha                 89.862112
_cell_angle_beta                  90.383175
_cell_angle_gamma                 90.026117
_cell_volume                      4046.66002953

loop_
_atom_site_label
_atom_site_type_symbol
_atom_type_description
_atom_site_fract_x
_atom_site_fract_y
_atom_site_fract_z
_atom_type_partial_charge
C1    C     C_R   0.238259 0.471513 0.645575 0.567358
C2    C     C_R   0.761715 0.471274 0.354375 0.564277
C3    C     C_R   0.738256 0.971522 0.645571 0.564211
C4    C     C_R   0.261713 0.971267 0.354372 0.567087
C5    C     C_2   0.290126 0.883008 0.542227 0.083494
C6    C     C_2   0.710009 0.881782 0.457940 0.083775
C7    C     C_2   0.790129 0.383018 0.542229 0.083699
C8    C     C_2   0.210016 0.381767 0.457945 0.083554
C9    C     C_R   0.961130 0.626363 0.436563 -0.013732
C10   C     C_R   0.038546 0.626676 0.563612 -0.013618
C11   C     C_R   0.461130 0.126362 0.436565 -0.014021
C12   C     C_R   0.538545 0.126676 0.563614 -0.013319
C13   C     C_R   0.938585 0.839555 0.460924 -0.064806
C14   C     C_R   0.060113 0.840384 0.538820 -0.065748
C15   C     C_R   0.438578 0.339551 0.460931 -0.064939
C16   C     C_R   0.560106 0.340388 0.538826 -0.065496
C17   C     C_R   0.966895 0.948213 0.482776 -0.114921
C18   C     C_R   0.031570 0.948559 0.516193 -0.115696
C19   C     C_R   0.466883 0.448211 0.482789 -0.115098
C20   C     C_R   0.531558 0.448563 0.516205 -0.115349
C21   C     C_R   0.025564 0.731418 0.525258 0.030592
C22   C     C_R   0.973565 0.731092 0.474809 0.030743
C23   C     C_R   0.525561 0.231419 0.525262 0.030720
C24   C     C_R   0.473563 0.231092 0.474812 0.030655
C25   C     C_R   0.018566 0.507579 0.533829 0.033320
C26   C     C_R   0.981375 0.507500 0.466637 0.033771
C27   C     C_R   0.518564 0.007580 0.533834 0.033580
C28   C     C_R   0.481373 0.007500 0.466642 0.033535
C29   C     C_R   0.034359 0.387080 0.564961 0.148134
C30   C     C_R   0.965860 0.387096 0.435721 0.148771
C31   C     C_R   0.534354 0.887080 0.564969 0.148091
C32   C     C_R   0.465854 0.887097 0.435730 0.148792
C33   C     C_R   0.017139 0.283204 0.530848 -0.164077
C34   C     C_R   0.983888 0.283175 0.469693 -0.165154
C35   C     C_R   0.517128 0.783204 0.530860 -0.164143
C36   C     C_R   0.483876 0.783176 0.469706 -0.165084
C37   C     C_2   0.240424 0.898220 0.926689 -0.103553
C38   C     C_2   0.757428 0.903643 0.075654 -0.076917
C39   C     C_2   0.742538 0.402909 0.924457 -0.078235
C40   C     C_2   0.259955 0.398213 0.073049 -0.102379
C41   C     C_2   0.247838 0.898830 0.084552 -0.097029
C42   C     C_2   0.753346 0.898315 0.914657 -0.108390
C43   C     C_2   0.746445 0.398906 0.085387 -0.104161
C44   C     C_2   0.252043 0.398911 0.915735 -0.098320
C45   C     C_R   0.228517 0.878558 0.651655 0.546902
C46   C     C_R   0.771467 0.878417 0.348352 0.543794
C47   C     C_R   0.728515 0.378554 0.651653 0.543808
C48   C     C_R   0.271465 0.378420 0.348351 0.546906
C49   C     C_2   0.190342 0.909345 0.044246 0.190392
C50   C     C_2   0.805168 0.924180 0.960127 0.186094
C51   C     C_2   0.694685 0.425381 0.039861 0.188509
C52   C     C_2   0.310213 0.407794 0.955170 0.189251
C53   C     C_2   0.191719 0.863436 0.972577 -0.152003
C54   C     C_2   0.803814 0.867185 0.028312 -0.125836
C55   C     C_2   0.695588 0.368267 0.971822 -0.128585
C56   C     C_2   0.309109 0.364182 0.027525 -0.150473
C57   C     C_2   0.009349 0.656626 0.925029 -0.099889
C58   C     C_2   0.004630 0.663193 0.081837 -0.094009
C59   C     C_2   0.510414 0.155913 0.925452 -0.092490
C60   C     C_2   0.506055 0.163852 0.082407 -0.108247
C61   C     C_2   0.015912 0.563854 0.043636 -0.169361
C62   C     C_2   0.030954 0.567853 0.968693 -0.161088
C63   C     C_2   0.518179 0.064723 0.044221 -0.164068
C64   C     C_2   0.534262 0.069425 0.969444 -0.169810
C65   C     C_R   0.061464 0.645389 0.638101 0.537980
C66   C     C_R   0.938510 0.645136 0.361908 0.537453
C67   C     C_R   0.561464 0.145390 0.638102 0.537005
C68   C     C_R   0.438510 0.145136 0.361909 0.538369
C69   C     C_R   0.239176 0.465336 0.850315 0.581178
C70   C     C_R   0.761071 0.467048 0.149249 0.580729
C71   C     C_R   0.738897 0.966854 0.850757 0.577467
C72   C     C_R   0.260841 0.965615 0.149657 0.583223
C73   C     C_R   0.226669 0.871556 0.853344 0.568754
C74   C     C_R   0.772671 0.873364 0.147730 0.565462
C75   C     C_R   0.727234 0.372915 0.852393 0.565385
C76   C     C_R   0.273407 0.371613 0.146557 0.569010
C77   C     C_R   0.032139 0.651621 0.852225 0.574626
C78   C     C_R   0.970546 0.652628 0.149588 0.581885
C79   C     C_R   0.532469 0.151483 0.852409 0.587237
C80   C     C_R   0.470740 0.152733 0.149645 0.572760
C81   C     C_2   0.260011 0.944285 0.594934 0.246560
C82   C     C_2   0.740046 0.943565 0.405177 0.247555
C83   C     C_2   0.760007 0.444287 0.594935 0.247845
C84   C     C_2   0.240044 0.443561 0.405180 0.246354
C85   C     C_2   0.250686 0.920142 0.423610 -0.042937
C86   C     C_2   0.749452 0.920277 0.576472 -0.041698
C87   C     C_2   0.750689 0.420153 0.423614 -0.042552
C88   C     C_2   0.249457 0.420263 0.576478 -0.042078
C89   C     C_2   0.298446 0.938319 0.473543 -0.092724
C90   C     C_2   0.701382 0.936734 0.526586 -0.089027
C91   C     C_2   0.798448 0.438332 0.473546 -0.091975
C92   C     C_2   0.201387 0.436716 0.526591 -0.089857
Cr1   Cr    Cr6+3 0.113970 0.508630 0.747920 1.019125
Cr2   Cr    Cr6+3 0.886030 0.508630 0.252080 1.020044
Cr3   Cr    Cr6+3 0.613970 0.008630 0.747920 1.018539
Cr4   Cr    Cr6+3 0.386030 0.008630 0.252080 1.020653
Cr5   Cr    Cr6+3 0.269200 0.666740 0.749850 1.064189
Cr6   Cr    Cr6+3 0.730800 0.666740 0.250150 1.061872
Cr7   Cr    Cr6+3 0.769200 0.166740 0.749850 1.063079
Cr8   Cr    Cr6+3 0.230800 0.166740 0.250150 1.062720
Cr9   Cr    Cr6+3 0.112300 0.820070 0.749800 1.068992
Cr10  Cr    Cr6+3 0.887700 0.820070 0.250200 1.087490
Cr11  Cr    Cr6+3 0.612300 0.320070 0.749800 1.091209
Cr12  Cr    Cr6+3 0.387700 0.320070 0.250200 1.067219
H1    H     H_    0.343761 0.992380 0.463316 0.124566
H2    H     H_    0.655727 0.989772 0.536689 0.124970
H3    H     H_    0.843766 0.492387 0.463318 0.124579
H4    H     H_    0.155733 0.489757 0.536692 0.124966
H5    H     H_    0.146015 0.814982 0.954043 0.161734
H6    H     H_    0.848908 0.814229 0.044115 0.153658
H7    H     H_    0.649899 0.316921 0.956062 0.160336
H8    H     H_    0.355007 0.316817 0.046592 0.157819
H9    H     H_    0.291255 0.846838 0.064371 0.091297
H10   H     H_    0.715607 0.829406 0.929042 0.096534
H11   H     H_    0.783915 0.329651 0.071139 0.099483
H12   H     H_    0.208098 0.349332 0.936943 0.085421
H13   H     H_    0.286405 0.948239 0.942523 0.104096
H14   H     H_    0.713268 0.960186 0.061896 0.098175
H15   H     H_    0.787431 0.457616 0.938188 0.104791
H16   H     H_    0.213518 0.446575 0.056773 0.098147
H17   H     H_    0.011604 0.474277 0.066991 0.183231
H18   H     H_    0.058983 0.490087 0.948518 0.170830
H19   H     H_    0.513556 0.975009 0.067320 0.184431
H20   H     H_    0.564238 0.993731 0.949490 0.172051
H21   H     H_    0.011536 0.752630 0.059491 0.194940
H22   H     H_    0.981814 0.735773 0.943803 0.149775
H23   H     H_    0.513851 0.253643 0.060400 0.168220
H24   H     H_    0.480596 0.232242 0.944023 0.183345
H25   H     H_    0.201310 0.878747 0.435983 0.154441
H26   H     H_    0.799152 0.880237 0.564114 0.152952
H27   H     H_    0.701311 0.378764 0.435989 0.153718
H28   H     H_    0.299157 0.380221 0.564124 0.153772
H29   H     H_    0.938604 0.028828 0.471157 0.125742
H30   H     H_    0.059795 0.029347 0.527048 0.123350
H31   H     H_    0.438589 0.528824 0.471171 0.125711
H32   H     H_    0.559780 0.529352 0.527061 0.123356
H33   H     H_    0.889887 0.839419 0.433193 0.115364
H34   H     H_    0.108775 0.841105 0.566676 0.116881
H35   H     H_    0.389881 0.339413 0.433198 0.115813
H36   H     H_    0.608769 0.341113 0.566681 0.116313
H37   H     H_    0.027844 0.197740 0.554985 0.121840
H38   H     H_    0.973418 0.197605 0.445800 0.120328
H39   H     H_    0.527828 0.697741 0.554999 0.121966
H40   H     H_    0.473401 0.697605 0.445815 0.120214
O1    O     O_R   0.043230 0.549300 0.667990 -0.475509
O2    O     O_R   0.956770 0.549300 0.332010 -0.476814
O3    O     O_R   0.543230 0.049300 0.667990 -0.475344
O4    O     O_R   0.456770 0.049300 0.332010 -0.476950
O5    O     O_R   0.262920 0.788600 0.824420 -0.471496
O6    O     O_R   0.737080 0.788600 0.175580 -0.455986
O7    O     O_R   0.762920 0.288600 0.824420 -0.455375
O8    O     O_R   0.237080 0.288600 0.175580 -0.471230
O9    O     O_R   0.167530 0.905110 0.830340 -0.499702
O10   O     O_R   0.832470 0.905110 0.169660 -0.500667
O11   O     O_R   0.667530 0.405110 0.830340 -0.500163
O12   O     O_R   0.332470 0.405110 0.169660 -0.499679
O13   O     O_R   0.054010 0.748440 0.822860 -0.475882
O14   O     O_R   0.945990 0.748440 0.177140 -0.460229
O15   O     O_R   0.554010 0.248440 0.822860 -0.452300
O16   O     O_R   0.445990 0.248440 0.177140 -0.481110
O17   O     O_3   0.165160 0.665150 0.749190 -0.310670
O18   O     O_3   0.834840 0.665150 0.250810 -0.311300
O19   O     O_3   0.665160 0.165150 0.749190 -0.314048
O20   O     O_3   0.334840 0.165150 0.250810 -0.308615
O21   O     O_R   0.178620 0.457600 0.674100 -0.497256
O22   O     O_R   0.821380 0.457600 0.325900 -0.497726
O23   O     O_R   0.678620 0.957600 0.674100 -0.497518
O24   O     O_R   0.321380 0.957600 0.325900 -0.497414
O25   O     O_R   0.284680 0.542100 0.669460 -0.533900
O26   O     O_R   0.715320 0.542100 0.330540 -0.539889
O27   O     O_R   0.784680 0.042100 0.669460 -0.539289
O28   O     O_R   0.215320 0.042100 0.330540 -0.535117
O29   O     O_R   0.262860 0.790390 0.676650 -0.544528
O30   O     O_R   0.737140 0.790390 0.323350 -0.547212
O31   O     O_R   0.762860 0.290390 0.676650 -0.546542
O32   O     O_R   0.237140 0.290390 0.323350 -0.545195
O33   O     O_R   0.167460 0.907030 0.670940 -0.507645
O34   O     O_R   0.832540 0.907030 0.329060 -0.508838
O35   O     O_R   0.667460 0.407030 0.670940 -0.508957
O36   O     O_R   0.332540 0.407030 0.329060 -0.507475
O37   O     O_R   0.053950 0.750220 0.675100 -0.478688
O38   O     O_R   0.946050 0.750220 0.324900 -0.476541
O39   O     O_R   0.553950 0.250220 0.675100 -0.475386
O40   O     O_R   0.446050 0.250220 0.324900 -0.479470
O41   O     O_R   0.043300 0.547370 0.827390 -0.515041
O42   O     O_R   0.956700 0.547370 0.172610 -0.520459
O43   O     O_R   0.543300 0.047370 0.827390 -0.518494
O44   O     O_R   0.456700 0.047370 0.172610 -0.516225
O45   O     O_R   0.178690 0.455820 0.821860 -0.517636
O46   O     O_R   0.821310 0.455820 0.178140 -0.512440
O47   O     O_R   0.678690 0.955820 0.821860 -0.519008
O48   O     O_R   0.321310 0.955820 0.178140 -0.511774
O49   O     O_R   0.284750 0.540170 0.828860 -0.410970
O50   O     O_R   0.715250 0.540170 0.171140 -0.410543
O51   O     O_R   0.784750 0.040170 0.828860 -0.409565
O52   O     O_R   0.215250 0.040170 0.171140 -0.411407
N1    N     N_2   0.306035 0.757449 0.548542 -0.462541
H41   H     H_    0.265893 0.700378 0.561462 0.250825
C93   C     C_3   0.370996 0.730454 0.583588 -0.232766
H42   H     H_    0.363852 0.693247 0.636865 0.183468
H43   H     H_    0.402184 0.813648 0.590707 0.153376
H44   H     H_    0.398561 0.660540 0.553404 0.149592
N2    N     N_2   0.693788 0.756380 0.451471 -0.461843
H45   H     H_    0.733862 0.699264 0.438653 0.251127
C94   C     C_3   0.628976 0.730138 0.415976 -0.233601
H46   H     H_    0.636299 0.693041 0.362819 0.182424
H47   H     H_    0.598071 0.813611 0.408529 0.153556
H48   H     H_    0.601061 0.660212 0.445979 0.148135
N3    N     N_2   0.806037 0.257459 0.548541 -0.462151
H49   H     H_    0.765895 0.200387 0.561461 0.251290
C95   C     C_3   0.871000 0.230462 0.583580 -0.233399
H50   H     H_    0.863858 0.193256 0.636857 0.182220
H51   H     H_    0.902191 0.313654 0.590694 0.153402
H52   H     H_    0.898562 0.160548 0.553392 0.149295
N4    N     N_2   0.193796 0.256365 0.451472 -0.462216
H53   H     H_    0.233871 0.199251 0.438652 0.250682
C96   C     C_3   0.128985 0.230125 0.415974 -0.233015
H54   H     H_    0.136306 0.193027 0.362817 0.183549
H55   H     H_    0.098082 0.313600 0.408523 0.153552
H56   H     H_    0.101068 0.160200 0.445975 0.148413
S1    S     S_3+6 0.264173 0.102016 0.604359 -0.014533
O53   O     O_2   0.198490 0.154150 0.575141 -0.341473
O54   O     O_2   0.268465 0.133257 0.681296 -0.236214
O55   O     O_3   0.334704 0.158249 0.564173 -0.546030
H57   H     H_    0.319226 0.183752 0.516777 0.308448
S2    S     S_3+6 0.736214 0.101427 0.396080 -0.018270
O56   O     O_2   0.801750 0.152777 0.425999 -0.342347
O57   O     O_2   0.732592 0.133930 0.319201 -0.244489
O58   O     O_3   0.665454 0.157231 0.435874 -0.547454
H58   H     H_    0.680584 0.181864 0.483480 0.308570
S3    S     S_3+6 0.764142 0.602018 0.604357 -0.017023
O59   O     O_2   0.698459 0.654118 0.575119 -0.340718
O60   O     O_2   0.768407 0.633264 0.681295 -0.243512
O61   O     O_3   0.834676 0.658277 0.564189 -0.547248
H59   H     H_    0.819211 0.683743 0.516781 0.308714
S4    S     S_3+6 0.236189 0.601424 0.396085 -0.016003
O62   O     O_2   0.301725 0.652800 0.425988 -0.343032
O63   O     O_2   0.232544 0.633929 0.319206 -0.237771
O64   O     O_3   0.165432 0.657203 0.435895 -0.546409
H60   H     H_    0.180574 0.681870 0.483491 0.308348
N5    N     N_2   0.927400 0.358588 0.373748 -0.441726
H61   H     H_    0.884551 0.306368 0.384692 0.305570
C97   C     C_3   0.966410 0.303097 0.316691 -0.217804
H62   H     H_    0.935092 0.306397 0.267479 0.173390
H63   H     H_    0.977930 0.206543 0.328168 0.098248
H64   H     H_    0.015916 0.351839 0.307480 0.161023
N6    N     N_2   0.071899 0.358305 0.627595 -0.440985
H65   H     H_    0.114731 0.305598 0.617561 0.305005
C98   C     C_3   0.031814 0.303458 0.684243 -0.218906
H66   H     H_    0.062563 0.306039 0.733834 0.173254
H67   H     H_    0.019715 0.207199 0.672739 0.095409
H68   H     H_    0.982550 0.353182 0.692745 0.162930
N7    N     N_2   0.427403 0.858591 0.373752 -0.441146
H69   H     H_    0.384554 0.806365 0.384688 0.305656
C99   C     C_3   0.466426 0.803108 0.316702 -0.218722
H70   H     H_    0.435116 0.806408 0.267486 0.173829
H71   H     H_    0.477949 0.706556 0.328182 0.095970
H72   H     H_    0.515932 0.851857 0.307501 0.160253
N8    N     N_2   0.571904 0.858303 0.627598 -0.441703
H73   H     H_    0.614736 0.805603 0.617554 0.304913
C100  C     C_3   0.531833 0.803446 0.684254 -0.217724
H74   H     H_    0.562592 0.806023 0.733839 0.173129
H75   H     H_    0.519736 0.707186 0.672751 0.098046
H76   H     H_    0.482569 0.853162 0.692768 0.163720
S5    S     S_3+6 0.112149 0.981972 0.068826 0.039093
O65   O     O_2   0.087665 0.933512 0.138412 -0.234865
O66   O     O_2   0.123280 0.116359 0.074605 -0.262788
O67   O     O_3   0.050969 0.956172 0.007202 -0.487133
H77   H     H_    0.063271 0.009377 0.967093 0.374636
S6    S     S_3+6 0.869707 0.037774 0.950689 0.039100
O68   O     O_2   0.915553 0.008288 0.889386 -0.234504
O69   O     O_2   0.836774 0.159503 0.939015 -0.289091
O70   O     O_3   0.918374 0.044468 0.024407 -0.445468
H78   H     H_    0.888925 0.085542 0.059582 0.348399
S7    S     S_3+6 0.630554 0.539578 0.049163 0.034785
O71   O     O_2   0.584476 0.510008 0.110365 -0.239755
O72   O     O_2   0.663920 0.660865 0.060938 -0.293189
O73   O     O_3   0.582029 0.547540 0.975376 -0.447121
H79   H     H_    0.611832 0.588094 0.940172 0.348345
S8    S     S_3+6 0.389452 0.474421 0.927952 0.039977
O74   O     O_2   0.410800 0.423479 0.858027 -0.232716
O75   O     O_2   0.381422 0.609428 0.921547 -0.253615
O76   O     O_3   0.451743 0.445128 0.987894 -0.498246
H80   H     H_    0.441575 0.499014 0.028171 0.376766

loop_
_geom_bond_atom_site_label_1
_geom_bond_atom_site_label_2
_ccdc_geom_bond_type
Cr2   O2    S    
C7    C83   D    
N2    H45   S    
C99   H71   S    
Cr10  O38   S    
C6    C82   D    
C87   C91   D    
Cr8   O28   S    
C77   O41   A    
C14   C18   A    
C35   C36   A    
S8    O76   S    
C48   O36   A    
C8    N4    S    
Cr11  O15   S    
O55   H57   S    
Cr2   O22   S    
Cr3   O43   S    
C57   C62   D    
C65   O37   A    
C94   H46   S    
Cr8   O8    S    
C96   H56   S    
C15   C19   A    
C82   S2    S    
C12   C23   A    
C54   H6    S    
C59   C64   D    
C50   C54   S    
C79   O43   A    
C60   C63   D    
Cr11  O39   S    
C32   C36   A    
C14   C21   A    
C16   C20   A    
S7    O72   D    
O64   H60   S    
S8    O75   D    
S1    O55   S    
C45   O29   A    
N4    C96   S    
C79   O15   A    
C100  H74   S    
Cr6   O30   S    
Cr4   O20   S    
C9    C22   A    
C80   O16   A    
Cr7   O27   S    
C76   O8    A    
C19   H31   S    
C97   H62   S    
S4    O63   D    
C29   C33   A    
C11   C24   A    
S6    O69   D    
Cr5   O25   S    
S4    O62   D    
Cr6   O50   S    
Cr1   O41   S    
C61   H17   S    
N5    H61   S    
C87   H27   S    
N1    C93   S    
C46   O34   A    
C9    C66   S    
C42   C71   S    
C47   O35   A    
C85   H25   S    
C5    C81   D    
C46   C82   S    
C52   C56   S    
C78   O14   A    
O73   H79   S    
C39   C55   D    
S7    O71   D    
C75   O7    A    
C40   C56   D    
C30   N5    S    
C32   N7    S    
Cr8   O32   S    
C93   H44   S    
C23   C24   A    
Cr4   O24   S    
Cr1   O1    S    
N7    H69   S    
C8    C92   S    
C39   C75   S    
N1    H41   S    
C58   C61   D    
C92   H4    S    
S5    O65   D    
Cr10  O10   S    
Cr9   O17   S    
C68   O4    A    
C45   O33   A    
C52   S8    S    
C37   C53   D    
C44   C52   D    
C1    C88   S    
Cr8   O52   S    
C66   O38   A    
C99   H72   S    
Cr1   O21   S    
C93   H42   S    
C21   C22   A    
C3    C86   S    
C29   N6    S    
S6    O70   S    
Cr10  O14   S    
C16   H36   S    
Cr12  O16   S    
C41   C49   D    
C7    N3    S    
C42   H10   S    
C9    C26   A    
C33   C34   A    
C15   H35   S    
N6    C98   S    
C10   C21   A    
C25   C29   A    
Cr4   O4    S    
C12   C67   S    
C98   H67   S    
Cr5   O29   S    
C30   C34   A    
C12   C27   A    
C3    O23   A    
C51   S7    S    
Cr12  O40   S    
C34   H38   S    
C14   H34   S    
C28   C32   A    
S7    O73   S    
Cr3   O3    S    
S8    O74   D    
C90   H2    S    
N3    H49   S    
C86   C90   D    
C59   C79   S    
C57   H22   S    
N7    C99   S    
C85   C89   D    
C11   C68   S    
C86   H26   S    
C5    N1    S    
C4    C85   S    
C1    O25   A    
C51   C55   S    
C33   H37   S    
C96   H54   S    
C6    C90   S    
C27   C31   A    
C76   O12   A    
Cr12  O12   S    
C4    O24   A    
C43   H11   S    
N5    C97   S    
C74   O10   A    
C13   H33   S    
N4    H53   S    
Cr2   O46   S    
Cr7   O51   S    
O58   H58   S    
Cr3   O19   S    
S1    O53   D    
N2    C94   S    
C71   O51   A    
C95   H50   S    
C38   C54   D    
Cr9   O9    S    
C70   O50   A    
C97   H64   S    
C7    C91   S    
C69   O49   A    
C17   C18   A    
C98   H66   S    
C37   H13   S    
C2    C87   S    
Cr8   O20   S    
C25   C26   A    
C88   C92   D    
C20   H32   S    
C56   H8    S    
S5    O66   D    
C67   O39   A    
C42   C50   D    
C41   C72   S    
C78   O42   A    
C10   C25   A    
Cr11  O11   S    
C15   C24   A    
S3    O59   D    
C2    O26   A    
Cr1   O17   S    
C26   C30   A    
C16   C23   A    
S2    O57   D    
S3    O60   D    
C67   O3    A    
O76   H80   S    
Cr10  O34   S    
Cr7   O19   S    
C55   H7    S    
C96   H55   S    
O61   H59   S    
C88   H28   S    
C2    O22   A    
C73   O9    A    
N8    H73   S    
C40   H16   S    
C62   H18   S    
Cr6   O18   S    
Cr9   O37   S    
Cr10  O18   S    
C70   O46   A    
C100  H75   S    
Cr6   O6    S    
C10   C65   S    
C53   H5    S    
C95   H51   S    
C37   C73   S    
C60   C80   S    
C98   H68   S    
Cr5   O5    S    
Cr1   O45   S    
C4    O28   A    
C84   S4    S    
C50   S6    S    
C8    C84   D    
C1    O21   A    
C45   C81   S    
Cr2   O42   S    
C41   H9    S    
C47   C83   S    
N8    C100  S    
Cr3   O23   S    
C72   O52   A    
C100  H76   S    
C63   H19   S    
N6    H65   S    
C46   O30   A    
C75   O11   A    
Cr3   O47   S    
C43   C70   S    
S2    O58   S    
C81   S1    S    
C35   H39   S    
Cr11  O19   S    
S4    O64   S    
C13   C17   A    
C89   H1    S    
Cr4   O48   S    
C19   C20   A    
C57   C77   S    
C59   H24   S    
C68   O40   A    
C6    N2    S    
S1    O54   D    
C64   H20   S    
C17   H29   S    
C3    O27   A    
Cr12  O20   S    
Cr12  O36   S    
Cr7   O7    S    
C11   C28   A    
C43   C51   D    
C69   O45   A    
C39   H15   S    
C31   C35   A    
C60   H23   S    
C49   S5    S    
N3    C95   S    
C38   C74   S    
C13   C22   A    
C18   H30   S    
S3    O61   S    
Cr11  O35   S    
C83   S3    S    
C36   H40   S    
C61   C62   S    
S5    O67   S    
C47   O31   A    
C66   O2    A    
C49   C53   S    
Cr9   O33   S    
C58   C78   S    
Cr9   O13   S    
C63   C64   S    
Cr6   O26   S    
C48   C84   S    
C95   H52   S    
Cr7   O31   S    
O67   H77   S    
C44   H12   S    
C58   H21   S    
S2    O56   D    
C73   O5    A    
C40   C76   S    
Cr5   O49   S    
C27   C28   A    
C93   H43   S    
C44   C69   S    
S6    O68   D    
C74   O6    A    
C38   H14   S    
C31   N8    S    
C94   H48   S    
C97   H63   S    
C71   O47   A    
C94   H47   S    
C65   O1    A    
Cr4   O44   S    
C72   O48   A    
C5    C89   S    
Cr2   O18   S    
C99   H70   S    
Cr5   O17   S    
C77   O13   A    
C48   O32   A    
C80   O44   A    
C91   H3    S    
O70   H78   S    
