data_mof_unit_pretest_9.cif
_audit_creation_date              2012-12-11T15:34:00-0500
_audit_creation_method            fapswitch 2.2
_symmetry_space_group_name_H-M    P1
_symmetry_Int_Tables_number       1
_space_group_crystal_system       triclinic
_cell_length_a                    15.064968
_cell_length_b                    15.063563
_cell_length_c                    34.982224
_cell_angle_alpha                 90.531092
_cell_angle_beta                  90.008588
_cell_angle_gamma                 60.082226
_cell_volume                      6880.32213918

loop_
_atom_site_label
_atom_site_type_symbol
_atom_type_description
_atom_site_fract_x
_atom_site_fract_y
_atom_site_fract_z
_atom_type_partial_charge
C1    C     C_R   0.302472 0.608239 0.555705 0.543530
C2    C     C_R   0.215548 0.721834 0.390436 -0.125224
C3    C     C_R   0.756354 0.131047 0.268145 -0.110937
C4    C     C_R   0.761834 0.124433 0.228376 -0.098897
C5    C     C_R   0.674386 0.184722 0.206266 0.038783
C6    C     C_R   0.726521 0.217551 0.349726 -0.123173
C7    C     C_R   0.709305 0.241205 0.388605 -0.127706
C8    C     C_R   0.555692 0.227574 0.385513 -0.126434
C9    C     C_R   0.737304 0.583353 0.648262 -0.182473
C10   C     C_R   0.572666 0.204547 0.346666 -0.121225
C11   C     C_R   0.655751 0.203634 0.328245 0.031110
C12   C     C_R   0.621154 0.250984 0.406417 0.022777
C13   C     C_R   0.189126 0.730030 0.352025 -0.121842
C14   C     C_R   0.085052 0.708343 0.094012 0.009101
C15   C     C_R   0.113988 0.610924 0.109501 -0.019688
C16   C     C_R   0.148060 0.589891 0.147240 -0.124993
C17   C     C_R   0.154855 0.663798 0.169634 0.018262
C18   C     C_R   0.134988 0.756247 0.153221 -0.123391
C19   C     C_R   0.100782 0.778149 0.115815 -0.134272
C20   C     C_R   0.235767 0.679678 0.229370 -0.118491
C21   C     C_1   0.095057 0.529233 0.912353 0.214282
C22   C     C_1   0.629242 0.872116 0.220608 0.178997
C23   C     C_1   0.107416 0.531935 0.088102 0.210009
C24   C     C_R   0.190836 0.647203 0.332713 0.031593
C25   C     C_R   0.564712 0.728969 0.649094 0.380168
C26   C     C_R   0.244508 0.630383 0.409927 0.022631
C27   C     C_R   0.736069 0.025280 0.943283 0.539752
C28   C     C_R   0.745904 0.722846 0.945045 0.562422
C29   C     C_R   0.038433 0.733783 0.948263 0.539206
C30   C     C_R   0.723222 0.038277 0.052958 0.541139
C31   C     C_R   0.733775 0.734732 0.054869 0.538247
C32   C     C_R   0.655685 0.663129 0.668686 0.037438
C33   C     C_R   0.028108 0.744358 0.057793 0.542689
C34   C     C_R   0.553118 0.709102 0.610939 -0.091903
C35   C     C_R   0.673775 0.674414 0.788026 0.335918
C36   C     C_R   0.663720 0.670416 0.710585 0.360954
C37   C     C_R   0.766765 0.600807 0.848918 -0.143650
C38   C     C_R   0.782754 0.611745 0.887444 -0.186846
C39   C     C_R   0.624939 0.775342 0.889521 0.368587
C40   C     C_R   0.609134 0.764005 0.850920 -0.081099
C41   C     C_R   0.682041 0.678800 0.829908 -0.024337
C42   C     C_R   0.610696 0.588492 0.555195 0.550430
C43   C     C_R   0.241604 0.678676 0.269029 -0.117053
C44   C     C_R   0.714606 0.701129 0.907741 0.026237
C45   C     C_R   0.723410 0.071964 0.905353 0.018307
C46   C     C_R   0.633125 0.101552 0.884646 -0.107212
C47   C     C_R   0.629249 0.121902 0.845764 -0.114510
C48   C     C_R   0.715123 0.113969 0.826944 0.027002
C49   C     C_R   0.802586 0.092532 0.848091 -0.119317
C50   C     C_R   0.806845 0.071412 0.887056 -0.125231
C51   C     C_R   0.746716 0.184445 0.767348 -0.110804
C52   C     C_R   0.739929 0.196164 0.727736 -0.108475
C53   C     C_R   0.702208 0.144514 0.705178 0.024917
C54   C     C_R   0.183801 0.647744 0.290873 0.028559
C55   C     C_R   0.590303 0.300447 0.553542 0.544350
C56   C     C_R   0.675050 0.078089 0.722849 -0.112767
C57   C     C_R   0.680975 0.067161 0.762410 -0.110969
C58   C     C_R   0.714895 0.121801 0.785002 0.023082
C59   C     C_R   0.590711 0.181982 0.647860 -0.114161
C60   C     C_R   0.563911 0.218703 0.610788 -0.121784
C61   C     C_R   0.722857 0.221052 0.604423 -0.124149
C62   C     C_R   0.749843 0.183898 0.641493 -0.118527
C63   C     C_R   0.682416 0.167343 0.664013 0.030842
C64   C     C_R   0.627998 0.242134 0.589219 0.020679
C65   C     C_R   0.122631 0.614604 0.272529 -0.115970
C66   C     C_R   0.092300 0.697301 0.910965 0.006692
C67   C     C_R   0.299699 0.610452 0.446271 0.543792
C68   C     C_R   0.112871 0.764720 0.890205 -0.131496
C69   C     C_R   0.136163 0.748736 0.851433 -0.121659
C70   C     C_R   0.140946 0.664243 0.832502 0.016867
C71   C     C_R   0.131511 0.590687 0.853583 -0.119130
C72   C     C_R   0.107585 0.606146 0.892648 -0.019731
C73   C     C_R   0.216716 0.564770 0.772066 -0.105080
C74   C     C_R   0.224940 0.560074 0.732286 -0.102241
C75   C     C_R   0.164522 0.647576 0.710308 0.033460
C76   C     C_R   0.116556 0.615864 0.232803 -0.111421
C77   C     C_R   0.093912 0.739045 0.728762 -0.105668
C78   C     C_R   0.086088 0.743824 0.768481 -0.102869
C79   C     C_R   0.608044 0.589877 0.445376 0.542810
C80   C     C_R   0.148511 0.657189 0.790465 0.033620
C81   C     C_R   0.187793 0.725765 0.651333 -0.106655
C82   C     C_R   0.220036 0.716966 0.613466 -0.116813
C83   C     C_R   0.233357 0.550136 0.608724 -0.126417
C84   C     C_R   0.201012 0.559029 0.646617 -0.120073
C85   C     C_R   0.181541 0.645289 0.668647 0.030378
C86   C     C_R   0.246958 0.627345 0.592273 0.018481
C87   C     C_R   0.172010 0.649785 0.211005 0.030767
C88   C     C_R   0.693973 0.720530 0.091441 0.020604
C89   C     C_R   0.604973 0.801508 0.108056 -0.119115
C90   C     C_R   0.579861 0.796132 0.146066 -0.102943
C91   C     C_R   0.587999 0.302544 0.443879 0.543291
C92   C     C_R   0.643709 0.710124 0.167993 0.030153
C93   C     C_R   0.728115 0.626283 0.150583 -0.120720
C94   C     C_R   0.752955 0.631276 0.112637 -0.121179
C95   C     C_R   0.626854 0.623290 0.224970 -0.135384
C96   C     C_R   0.625952 0.611790 0.264346 -0.123521
C97   C     C_R   0.624829 0.685867 0.289180 0.011418
C98   C     C_R   0.209636 0.559873 0.353069 -0.121606
C99   C     C_R   0.621110 0.773574 0.274198 -0.120183
C100  C     C_R   0.623604 0.785090 0.234588 0.002066
C101  C     C_R   0.627563 0.708617 0.209595 0.011275
C102  C     C_R   0.556224 0.743061 0.355272 -0.120304
C103  C     C_R   0.631602 0.623682 0.591737 -0.036787
C104  C     C_R   0.553237 0.720303 0.393709 -0.125763
C105  C     C_R   0.703936 0.553469 0.383955 -0.125414
C106  C     C_R   0.705983 0.575749 0.345536 -0.121296
C107  C     C_R   0.630242 0.669237 0.330695 0.031264
C108  C     C_R   0.625046 0.623840 0.408065 0.022642
C109  C     C_R   0.236212 0.551516 0.391512 -0.126685
C110  C     C_R   0.700498 0.098178 0.088675 0.022448
C111  C     C_R   0.775494 0.115139 0.105524 -0.124536
C112  C     C_R   0.764083 0.149998 0.143214 -0.123857
C113  C     C_R   0.677606 0.168364 0.164570 0.035536
C114  C     C_R   0.598761 0.159785 0.146673 -0.099927
C115  C     C_R   0.725385 0.563791 0.610210 -0.153737
C116  C     C_R   0.609952 0.125295 0.108985 -0.116658
C117  C     C_R   0.582075 0.253447 0.224567 -0.112585
C118  C     C_R   0.576478 0.259479 0.264291 -0.112283
C119  C     C_R   0.663177 0.197266 0.286328 0.029621
Cr1   Cr    Cr6+3 0.421670 0.426920 0.499620 1.012498
Cr2   Cr    Cr6+3 0.427030 0.651190 0.500980 1.016983
Cr3   Cr    Cr6+3 0.651280 0.421870 0.499380 1.012776
Cr4   Cr    Cr6+3 0.910810 0.908010 0.001130 1.017565
Cr5   Cr    Cr6+3 0.682800 0.909890 0.998370 1.081444
Cr6   Cr    Cr6+3 0.908370 0.682300 0.002180 1.076892
F1    F     F_    0.484459 0.808832 0.667124 -0.619322
F2    F     F_    0.555197 0.861626 0.908217 -0.620981
H1    H     H_    0.787785 0.498127 0.595987 0.146392
H2    H     H_    0.490270 0.234229 0.599909 0.131769
H3    H     H_    0.869573 0.086323 0.834059 0.108737
H4    H     H_    0.480247 0.757189 0.597218 0.152719
H5    H     H_    0.774235 0.237658 0.588369 0.126691
H6    H     H_    0.104068 0.834211 0.903208 0.141372
H7    H     H_    0.194887 0.496791 0.659130 0.108711
H8    H     H_    0.281249 0.488989 0.718823 0.110120
H9    H     H_    0.265654 0.497147 0.788495 0.110608
H10   H     H_    0.146223 0.804910 0.835821 0.119608
H11   H     H_    0.045465 0.807129 0.712479 0.108394
H12   H     H_    0.877578 0.048631 0.902217 0.130694
H13   H     H_    0.031124 0.815359 0.782084 0.111481
H14   H     H_    0.173922 0.792885 0.667709 0.123036
H15   H     H_    0.851975 0.552745 0.900631 0.164511
H16   H     H_    0.229601 0.777830 0.601584 0.139211
H17   H     H_    0.137097 0.524033 0.839157 0.113333
H18   H     H_    0.252857 0.480397 0.593026 0.127289
H19   H     H_    0.557703 0.871118 0.092387 0.131194
H20   H     H_    0.821761 0.567439 0.100662 0.143898
H21   H     H_    0.764602 0.518457 0.327019 0.106108
H22   H     H_    0.627287 0.544279 0.275506 0.115790
H23   H     H_    0.821871 0.171416 0.653005 0.107075
H24   H     H_    0.629722 0.563983 0.206371 0.113923
H25   H     H_    0.512991 0.860628 0.158798 0.116247
H26   H     H_    0.620674 0.830708 0.293414 0.111850
H27   H     H_    0.809097 0.532528 0.662145 0.146593
H28   H     H_    0.497370 0.815780 0.344263 0.104736
H29   H     H_    0.491612 0.776029 0.411637 0.122320
H30   H     H_    0.778066 0.558906 0.166967 0.110077
H31   H     H_    0.760304 0.478478 0.394077 0.126761
H32   H     H_    0.845686 0.095849 0.090409 0.127607
H33   H     H_    0.550681 0.113304 0.096730 0.134315
H34   H     H_    0.760021 0.249050 0.714987 0.115548
H35   H     H_    0.518386 0.191899 0.330610 0.107774
H36   H     H_    0.504381 0.312903 0.277859 0.108935
H37   H     H_    0.513995 0.301576 0.208153 0.103602
H38   H     H_    0.824950 0.158091 0.156220 0.101578
H39   H     H_    0.823986 0.082506 0.284716 0.104984
H40   H     H_    0.833504 0.069382 0.214985 0.108201
H41   H     H_    0.791284 0.216863 0.335978 0.101047
H42   H     H_    0.761284 0.258527 0.404017 0.123366
H43   H     H_    0.531539 0.172797 0.162552 0.118523
H44   H     H_    0.487575 0.233676 0.398494 0.127151
H45   H     H_    0.773091 0.227208 0.784314 0.115971
H46   H     H_    0.080631 0.852881 0.104867 0.136638
H47   H     H_    0.172468 0.799013 0.336876 0.104204
H48   H     H_    0.823447 0.533223 0.833683 0.153693
H49   H     H_    0.291502 0.701866 0.282676 0.109742
H50   H     H_    0.279945 0.705063 0.213041 0.107100
H51   H     H_    0.166322 0.516998 0.159632 0.106334
H52   H     H_    0.077708 0.590292 0.288947 0.105578
H53   H     H_    0.065548 0.594078 0.219200 0.109474
H54   H     H_    0.211047 0.495235 0.338647 0.102258
H55   H     H_    0.257489 0.480346 0.405914 0.126069
H56   H     H_    0.560258 0.140433 0.830047 0.118809
H57   H     H_    0.139493 0.814563 0.170066 0.108007
H58   H     H_    0.220034 0.784348 0.404042 0.128122
H59   H     H_    0.542027 0.824442 0.837155 0.160876
H60   H     H_    0.567326 0.103297 0.897926 0.161316
H61   H     H_    0.647517 0.035946 0.706131 0.123588
H62   H     H_    0.658260 0.016540 0.775461 0.125530
H63   H     H_    0.536637 0.170915 0.664615 0.114117
N1    N     N_R   0.750209 0.597818 0.767348 -0.232672
N2    N     N_R   0.745095 0.595693 0.729450 -0.253387
N3    N     N_R   0.587399 0.747241 0.731280 -0.121119
N4    N     N_R   0.592531 0.749503 0.769220 -0.230857
N5    N     N_1   0.085056 0.467473 0.928066 -0.282101
N6    N     N_1   0.633842 0.941819 0.209450 -0.307357
N7    N     N_1   0.102212 0.468525 0.071021 -0.288271
O1    O     O_R   0.502070 0.323090 0.541280 -0.519512
O2    O     O_R   0.831550 0.656950 0.958960 -0.520535
O3    O     O_R   0.998590 0.685540 0.963930 -0.481505
O4    O     O_R   0.338340 0.520690 0.539540 -0.502902
O5    O     O_R   0.008220 0.831200 0.045060 -0.521621
O6    O     O_R   0.813270 0.997930 0.038810 -0.504307
O7    O     O_R   0.657500 0.016560 0.039940 -0.518194
O8    O     O_R   0.685680 0.820940 0.038120 -0.503869
O9    O     O_R   0.822130 0.666070 0.043610 -0.507100
O10   O     O_R   0.989860 0.694000 0.042400 -0.480689
O11   O     O_3   0.833990 0.833400 0.000560 -0.260088
O12   O     O_R   0.520720 0.641670 0.461580 -0.500981
O13   O     O_R   0.324760 0.674070 0.543580 -0.518494
O14   O     O_R   0.522400 0.640310 0.540110 -0.503332
O15   O     O_R   0.675940 0.500630 0.542210 -0.514593
O16   O     O_R   0.641790 0.337020 0.538150 -0.501898
O17   O     O_R   0.500260 0.324550 0.456580 -0.520615
O18   O     O_R   0.336660 0.522040 0.461020 -0.503884
O19   O     O_R   0.322940 0.675540 0.458880 -0.519673
O20   O     O_R   0.674120 0.502090 0.457500 -0.521308
O21   O     O_R   0.640110 0.338380 0.459630 -0.503931
O22   O     O_3   0.499990 0.499990 0.499990 -0.236436
O23   O     O_R   0.017640 0.822070 0.960410 -0.521814
O24   O     O_R   0.822000 0.989470 0.960340 -0.507910
O25   O     O_R   0.666920 0.007430 0.955290 -0.488733
O26   O     O_R   0.694410 0.812480 0.959650 -0.427409

loop_
_geom_bond_atom_site_label_1
_geom_bond_atom_site_label_2
_ccdc_geom_bond_type
C109  H55   S    
C66   C68   A    
Cr4   O23   S    
C93   C94   A    
Cr3   O20   S    
Cr5   O8    S    
Cr2   O22   S    
C73   C74   A    
Cr6   O9    S    
C12   C91   S    
C67   O18   A    
C95   C96   A    
C104  C108  A    
C11   C119  S    
C42   C103  S    
C14   C33   S    
C81   C82   A    
C54   C65   A    
C77   C78   A    
C36   N3    A    
Cr1   O18   S    
C57   H62   S    
C30   O6    A    
Cr4   O24   S    
C84   H7    S    
C62   C63   A    
C65   C76   A    
C30   C110  S    
C83   C84   A    
C24   C98   A    
C26   C67   S    
C32   C36   S    
C51   H45   S    
Cr5   O11   S    
C31   O8    A    
C91   O17   A    
C69   C70   A    
Cr1   O22   S    
C102  C104  A    
C78   C80   A    
C79   O20   A    
C55   O1    A    
C40   H59   S    
C106  C107  A    
C96   H22   S    
Cr1   O17   S    
C15   C16   A    
C20   C87   A    
C33   O5    A    
C1    C86   S    
C106  H21   S    
C56   C57   A    
C79   O12   A    
C18   C19   A    
C2    C13   A    
C111  H32   S    
C118  C119  A    
C92   C93   A    
C9    C32   A    
C83   H18   S    
C75   C85   S    
C29   O23   A    
C66   C72   A    
C56   H61   S    
Cr6   O3    S    
C16   C17   A    
C79   C108  S    
Cr1   O1    S    
C73   H9    S    
C70   C71   A    
Cr2   O12   S    
C46   H60   S    
Cr3   O21   S    
C77   H11   S    
C61   H5    S    
C8    H44   S    
C25   C34   A    
C27   C45   S    
C25   C32   A    
C15   C23   S    
C1    O4    A    
C59   C60   A    
C10   H35   S    
C98   C109  A    
C17   C87   S    
C96   C97   A    
Cr1   O4    S    
C38   H15   S    
C22   N6    T    
C67   O19   A    
C13   H47   S    
C112  C113  A    
C97   C99   A    
C16   H51   S    
C6    C7    A    
C6    H41   S    
C117  H37   S    
C69   H10   S    
C7    C12   A    
C105  C108  A    
C88   C94   A    
C118  H36   S    
C27   O24   A    
C28   O2    A    
C39   F2    S    
C74   C75   A    
C21   C72   S    
C70   C80   S    
N1    N2    A    
C9    C115  A    
Cr2   O19   S    
C52   H34   S    
C22   C100  S    
C84   C85   A    
C31   O9    A    
C47   H56   S    
Cr3   O22   S    
C39   C40   A    
C50   H12   S    
C68   C69   A    
C65   H52   S    
C33   O10   A    
C45   C46   A    
C28   C44   S    
C74   H8    S    
C104  H29   S    
C115  H1    S    
C110  C111  A    
C13   C24   A    
C5    C117  A    
C61   C64   A    
C103  C115  A    
C25   F1    S    
C19   H46   S    
C38   C44   A    
C37   C38   A    
C37   H48   S    
C43   H49   S    
C3    H39   S    
C43   C54   A    
C90   C92   A    
C47   C48   A    
C26   C109  A    
Cr5   O26   S    
C18   H57   S    
C8    C12   A    
C29   O3    A    
C55   C64   S    
C17   C18   A    
C102  C107  A    
C2    C26   A    
C51   C58   A    
Cr2   O13   S    
C21   N5    T    
C93   H30   S    
C89   H19   S    
C75   C77   A    
C76   C87   A    
C39   C44   A    
C3    C119  A    
C92   C101  S    
C90   H25   S    
C40   C41   A    
Cr5   O7    S    
C34   H4    S    
N3    N4    A    
C7    H42   S    
C116  H33   S    
Cr3   O15   S    
C95   H24   S    
C3    C4    A    
C110  C116  A    
C6    C11   A    
C20   C43   A    
C42   O15   A    
C52   C53   A    
C113  C114  A    
C49   H3    S    
C53   C56   A    
C94   H20   S    
C114  H43   S    
C46   C47   A    
C68   H6    S    
C27   O25   A    
C35   N1    A    
C31   C88   S    
C62   H23   S    
C111  C112  A    
C5    C113  S    
C1    O13   A    
C36   N2    A    
C14   C19   A    
Cr5   O25   S    
C82   H16   S    
C76   H53   S    
C78   H13   S    
C60   H2    S    
C55   O16   A    
C114  C116  A    
Cr3   O16   S    
C48   C58   S    
C20   H50   S    
C30   O7    A    
C105  C106  A    
C23   N7    T    
Cr6   O11   S    
C59   C63   A    
C34   C103  A    
C4    H40   S    
Cr4   O6    S    
C60   C64   A    
C91   O21   A    
C2    H58   S    
C51   C52   A    
Cr4   O5    S    
C105  H31   S    
C82   C86   A    
C99   C100  A    
C53   C63   S    
C57   C58   A    
C45   C50   A    
C98   H54   S    
C28   O26   A    
C48   C49   A    
C112  H38   S    
C99   H26   S    
C81   H14   S    
C100  C101  A    
C73   C80   A    
Cr6   O10   S    
Cr4   O11   S    
Cr2   O14   S    
C37   C41   A    
C61   C62   A    
C35   C41   S    
C10   C11   A    
C29   C66   S    
C97   C107  S    
C4    C5    A    
C83   C86   A    
C71   C72   A    
C88   C89   A    
Cr6   O2    S    
C8    C10   A    
C49   C50   A    
C14   C15   A    
C59   H63   S    
C89   C90   A    
C117  C118  A    
C24   C54   S    
C102  H28   S    
C81   C85   A    
C42   O14   A    
C95   C101  A    
C9    H27   S    
C71   H17   S    
C35   N4    A    
