data_mof_unit_pretest_218.cif
_audit_creation_date              2012-12-11T16:51:20-0500
_audit_creation_method            fapswitch 2.2
_symmetry_space_group_name_H-M    P1
_symmetry_Int_Tables_number       1
_space_group_crystal_system       triclinic
_cell_length_a                    24.317395
_cell_length_b                    17.156805
_cell_length_c                    15.534486
_cell_angle_alpha                 90.000917
_cell_angle_beta                  128.98473
_cell_angle_gamma                 89.999271
_cell_volume                      5037.86643922

loop_
_atom_site_label
_atom_site_type_symbol
_atom_type_description
_atom_site_fract_x
_atom_site_fract_y
_atom_site_fract_z
_atom_type_partial_charge
C1    C     C_R   0.850276 0.857756 0.243301 -0.121833
C2    C     C_R   0.137218 0.188743 0.500216 0.053606
C3    C     C_R   0.362783 0.688744 0.499785 0.053605
C4    C     C_R   0.637221 0.688742 0.500228 0.053617
C5    C     C_R   0.852766 0.125290 0.135252 0.155329
C6    C     C_R   0.147233 0.125299 0.864745 0.155310
C7    C     C_R   0.352766 0.625292 0.135253 0.155315
C8    C     C_R   0.647236 0.625290 0.864751 0.155316
C9    C     C_R   0.777365 0.832648 0.601628 0.136638
C10   C     C_R   0.222682 0.832713 0.398400 0.136601
C11   C     C_R   0.277320 0.332708 0.601600 0.136594
C12   C     C_R   0.149725 0.857757 0.756701 -0.121832
C13   C     C_R   0.722691 0.332725 0.398403 0.136578
C14   C     C_R   0.759932 0.857248 0.501512 0.047155
C15   C     C_R   0.240081 0.857235 0.498520 0.047192
C16   C     C_R   0.259922 0.357229 0.501479 0.047190
C17   C     C_R   0.740082 0.357230 0.498526 0.047198
C18   C     C_R   0.691701 0.842931 0.402186 -0.196169
C19   C     C_R   0.308298 0.842892 0.597855 -0.196165
C20   C     C_R   0.191704 0.342881 0.402143 -0.196163
C21   C     C_R   0.808298 0.342880 0.597864 -0.196159
C22   C     C_R   0.145093 0.296357 0.402539 -0.192473
C23   C     C_R   0.350270 0.357761 0.243286 -0.121836
C24   C     C_R   0.854913 0.296360 0.597468 -0.192467
C25   C     C_R   0.645097 0.796386 0.402583 -0.192495
C26   C     C_R   0.354911 0.796365 0.597460 -0.192475
C27   C     C_R   0.166764 0.262942 0.502014 0.049541
C28   C     C_R   0.833245 0.262951 0.497992 0.049545
C29   C     C_R   0.666787 0.762931 0.502049 0.049521
C30   C     C_R   0.333239 0.762946 0.497987 0.049545
C31   C     C_R   0.230874 0.285920 0.601849 0.127929
C32   C     C_R   0.769142 0.285940 0.398155 0.127915
C33   C     C_R   0.730931 0.785847 0.601876 0.127981
C34   C     C_R   0.649718 0.357750 0.756681 -0.121816
C35   C     C_R   0.269130 0.785923 0.398153 0.127932
C36   C     C_3   0.739561 0.833658 0.690057 -0.476421
C37   C     C_3   0.260603 0.833841 0.310145 -0.476420
C38   C     C_3   0.239402 0.333840 0.689862 -0.476403
C39   C     C_3   0.760636 0.333885 0.310181 -0.476372
C40   C     C_R   0.114326 0.895883 0.408086 -0.139284
C41   C     C_R   0.885677 0.895892 0.591919 -0.139280
C42   C     C_R   0.614326 0.395879 0.408087 -0.139276
C43   C     C_R   0.385675 0.395882 0.591913 -0.139297
C44   C     C_3   0.790186 0.884301 0.690106 -0.500102
C45   C     C_R   0.912921 0.144636 0.592430 -0.123293
C46   C     C_3   0.209962 0.884460 0.310085 -0.500106
C47   C     C_3   0.290042 0.384458 0.689920 -0.500093
C48   C     C_3   0.709992 0.384495 0.310120 -0.500082
C49   C     C_2   0.140867 0.742335 0.849952 -0.219860
C50   C     C_2   0.859136 0.742331 0.150051 -0.219849
C51   C     C_2   0.640838 0.242300 0.849875 -0.219846
C52   C     C_2   0.359125 0.242342 0.150023 -0.219844
C53   C     C_2   0.193521 0.702381 0.864978 -0.108189
C54   C     C_2   0.806482 0.702378 0.135026 -0.108188
C55   C     C_2   0.693534 0.202384 0.864971 -0.108131
C56   C     C_R   0.087080 0.144635 0.407572 -0.123302
C57   C     C_2   0.306482 0.202380 0.135021 -0.108190
C58   C     C_2   0.806332 0.150836 0.019695 -0.223066
C59   C     C_2   0.193670 0.150851 0.980302 -0.223033
C60   C     C_2   0.306328 0.650838 0.019693 -0.223047
C61   C     C_2   0.693674 0.650835 0.980311 -0.223043
C62   C     C_2   0.736015 0.150684 0.960044 -0.110340
C63   C     C_2   0.263988 0.150675 0.039955 -0.110346
C64   C     C_2   0.236011 0.650680 0.960049 -0.110339
C65   C     C_2   0.763991 0.650677 0.039954 -0.110336
C66   C     C_R   0.188457 0.896525 0.591736 -0.136253
C67   C     C_R   0.412920 0.644636 0.592429 -0.123302
C68   C     C_R   0.811541 0.896535 0.408269 -0.136260
C69   C     C_R   0.688456 0.396523 0.591737 -0.136255
C70   C     C_R   0.311544 0.396523 0.408263 -0.136249
C71   C     C_R   0.057734 0.858337 0.757797 -0.148434
C72   C     C_R   0.942267 0.858335 0.242204 -0.148423
C73   C     C_R   0.557724 0.358325 0.757770 -0.148439
C74   C     C_R   0.442262 0.358341 0.242191 -0.148429
C75   C     C_R   0.883737 0.815717 0.211483 0.149991
C76   C     C_R   0.116265 0.815719 0.788519 0.149992
C77   C     C_R   0.383729 0.315725 0.211462 0.149987
C78   C     C_R   0.587082 0.644639 0.407577 -0.123318
C79   C     C_R   0.616251 0.315702 0.788480 0.149990
C80   C     C_R   0.183118 0.880253 0.499833 0.060391
C81   C     C_R   0.816883 0.880271 0.500178 0.060406
C82   C     C_R   0.683118 0.380247 0.499834 0.060392
C83   C     C_R   0.316883 0.380250 0.500166 0.060397
C84   C     C_R   0.838109 0.144133 0.407533 -0.131414
C85   C     C_R   0.161892 0.144131 0.592469 -0.131412
C86   C     C_R   0.338108 0.644132 0.407532 -0.131413
C87   C     C_R   0.661893 0.644127 0.592475 -0.131402
C88   C     C_R   0.923419 0.106163 0.197437 -0.163541
C89   C     C_R   0.862785 0.188746 0.499787 0.053602
C90   C     C_R   0.076580 0.106168 0.802563 -0.163543
C91   C     C_R   0.423419 0.606165 0.197437 -0.163540
C92   C     C_R   0.576582 0.606164 0.802566 -0.163543
C93   C     C_R   0.167230 0.106722 0.801498 -0.130502
C94   C     C_R   0.832768 0.106717 0.198499 -0.130510
C95   C     C_R   0.667231 0.606717 0.801501 -0.130495
C96   C     C_R   0.332769 0.606718 0.198500 -0.130504
H1    H     H_    0.802354 0.843117 0.230203 0.089134
H2    H     H_    0.310070 0.864491 0.339904 0.201367
H3    H     H_    0.189935 0.364492 0.660104 0.201361
H4    H     H_    0.810112 0.364535 0.339974 0.201355
H5    H     H_    0.765558 0.800304 0.768237 0.184159
H6    H     H_    0.234641 0.800580 0.231909 0.184203
H7    H     H_    0.265366 0.300579 0.768098 0.184198
H8    H     H_    0.734681 0.300642 0.231929 0.184204
H9    H     H_    0.770559 0.944763 0.660793 0.200969
H10   H     H_    0.229612 0.944893 0.339538 0.200985
H11   H     H_    0.270390 0.444891 0.660466 0.200981
H12   H     H_    0.197649 0.843118 0.769802 0.089130
H13   H     H_    0.729648 0.444924 0.339606 0.200979
H14   H     H_    0.845581 0.880188 0.768259 0.182406
H15   H     H_    0.154589 0.880417 0.231874 0.182425
H16   H     H_    0.345417 0.380415 0.768131 0.182421
H17   H     H_    0.654622 0.380466 0.231895 0.182423
H18   H     H_    0.711211 0.124450 0.991518 0.124929
H19   H     H_    0.288787 0.124419 0.008484 0.124933
H20   H     H_    0.211212 0.624445 0.991529 0.124932
H21   H     H_    0.788789 0.624441 0.008471 0.124928
H22   H     H_    0.213625 0.718318 0.821732 0.127919
H23   H     H_    0.302344 0.343125 0.230179 0.089129
H24   H     H_    0.786378 0.718317 0.178272 0.127918
H25   H     H_    0.713680 0.218364 0.821797 0.127884
H26   H     H_    0.286387 0.218314 0.178283 0.127920
H27   H     H_    0.830448 0.177802 0.987307 0.128236
H28   H     H_    0.169559 0.177843 0.012685 0.128243
H29   H     H_    0.330439 0.677809 0.987301 0.128245
H30   H     H_    0.669564 0.677806 0.012707 0.128245
H31   H     H_    0.121506 0.726171 0.894341 0.127838
H32   H     H_    0.878496 0.726165 0.105660 0.127836
H33   H     H_    0.621429 0.226090 0.894186 0.127820
H34   H     H_    0.697638 0.343111 0.769772 0.089116
H35   H     H_    0.378475 0.226183 0.105615 0.127836
H36   H     H_    0.094359 0.899821 0.323343 0.093658
H37   H     H_    0.905649 0.899831 0.676665 0.093664
H38   H     H_    0.594360 0.399815 0.323344 0.093654
H39   H     H_    0.405640 0.399820 0.676656 0.093660
H40   H     H_    0.236393 0.901245 0.676421 0.083891
H41   H     H_    0.763602 0.901250 0.323585 0.083898
H42   H     H_    0.736393 0.401245 0.676421 0.083889
H43   H     H_    0.263607 0.401241 0.323578 0.083890
H44   H     H_    0.020597 0.842465 0.771089 0.097531
H45   H     H_    0.095183 0.281019 0.323897 0.120864
H46   H     H_    0.979404 0.842462 0.228911 0.097534
H47   H     H_    0.520582 0.342444 0.771048 0.097538
H48   H     H_    0.479398 0.342470 0.228895 0.097533
H49   H     H_    0.797983 0.160177 0.321939 0.099665
H50   H     H_    0.202021 0.160173 0.678064 0.099663
H51   H     H_    0.297981 0.660173 0.321937 0.099664
H52   H     H_    0.702025 0.660161 0.678072 0.099667
H53   H     H_    0.952931 0.102479 0.166981 0.091922
H54   H     H_    0.047070 0.102486 0.833020 0.091923
H55   H     H_    0.452931 0.602482 0.166982 0.091922
H56   H     H_    0.904819 0.281018 0.676111 0.120860
H57   H     H_    0.547071 0.602480 0.833022 0.091922
H58   H     H_    0.220429 0.103685 0.828799 0.079195
H59   H     H_    0.779570 0.103677 0.171196 0.079200
H60   H     H_    0.720430 0.603675 0.828802 0.079185
H61   H     H_    0.279571 0.603678 0.171200 0.079194
H62   H     H_    0.942368 0.160457 0.678220 0.092559
H63   H     H_    0.057633 0.160455 0.321782 0.092562
H64   H     H_    0.442367 0.660458 0.678219 0.092563
H65   H     H_    0.557640 0.660464 0.321790 0.092570
H66   H     H_    0.675839 0.862200 0.323210 0.119458
H67   H     H_    0.595171 0.781078 0.323945 0.120880
H68   H     H_    0.324142 0.862117 0.676834 0.119448
H69   H     H_    0.175861 0.362104 0.323163 0.119446
H70   H     H_    0.824137 0.362096 0.676844 0.119443
H71   H     H_    0.404820 0.781029 0.676102 0.120866
H72   H     H_    0.690128 0.864323 0.660455 0.201358
N1    N     N_R   0.888400 0.921830 0.294620 -0.044998
N2    N     N_R   0.874350 0.922400 0.443380 -0.038173
N3    N     N_R   0.625650 0.422400 0.556620 -0.038171
N4    N     N_R   0.374350 0.422400 0.443380 -0.038171
N5    N     N_R   0.054230 0.922730 0.705400 -0.041288
N6    N     N_R   0.945770 0.922730 0.294600 -0.041288
N7    N     N_R   0.554230 0.422730 0.705400 -0.041287
N8    N     N_R   0.445770 0.422730 0.294600 -0.041287
N9    N     N_R   0.873790 0.077030 0.443380 -0.040662
N10   N     N_R   0.126210 0.077030 0.556620 -0.040663
N11   N     N_R   0.373790 0.577030 0.443380 -0.040663
N12   N     N_R   0.111600 0.921830 0.705380 -0.044997
N13   N     N_R   0.626210 0.577030 0.556620 -0.040667
N14   N     N_R   0.945200 0.076700 0.294600 -0.038743
N15   N     N_R   0.054800 0.076700 0.705400 -0.038743
N16   N     N_R   0.445200 0.576700 0.294600 -0.038742
N17   N     N_R   0.554800 0.576700 0.705400 -0.038743
N18   N     N_R   0.111030 0.077600 0.705380 -0.042116
N19   N     N_R   0.888970 0.077600 0.294620 -0.042116
N20   N     N_R   0.611030 0.577600 0.705380 -0.042117
N21   N     N_R   0.388970 0.577600 0.294620 -0.042116
N22   N     N_R   0.919490 0.077280 0.556590 -0.039848
N23   N     N_R   0.388400 0.421830 0.294620 -0.044996
N24   N     N_R   0.080510 0.077280 0.443410 -0.039848
N25   N     N_R   0.419490 0.577280 0.556590 -0.039848
N26   N     N_R   0.580510 0.577280 0.443410 -0.039848
N27   N     N_R   0.611600 0.421830 0.705380 -0.044999
N28   N     N_R   0.079940 0.922160 0.443410 -0.037713
N29   N     N_R   0.920060 0.922160 0.556590 -0.037714
N30   N     N_R   0.579940 0.422160 0.443410 -0.037712
N31   N     N_R   0.420060 0.422160 0.556590 -0.037712
N32   N     N_R   0.125650 0.922400 0.556620 -0.038172
Ni1   Ni    Ni4+2 0.882160 0.999430 0.370180 0.208156
Ni2   Ni    Ni4+2 0.117840 0.999430 0.629820 0.208155
Ni3   Ni    Ni4+2 0.382160 0.499430 0.370180 0.208157
Ni4   Ni    Ni4+2 0.617840 0.499430 0.629820 0.208153
Ni5   Ni    Ni4+2 0.012460 0.999430 0.370180 0.210184
Ni6   Ni    Ni4+2 0.987540 0.999430 0.629820 0.210182
Ni7   Ni    Ni4+2 0.512460 0.499430 0.370180 0.210184
Ni8   Ni    Ni4+2 0.487540 0.499430 0.629820 0.210183

loop_
_geom_bond_atom_site_label_1
_geom_bond_atom_site_label_2
_ccdc_geom_bond_type
C34   N27   A    
C58   C62   D    
C55   H25   S    
C64   H20   S    
C54   H24   S    
C3    C30   S    
C43   C83   A    
N24   Ni5   S    
C14   C18   A    
C13   C32   A    
C11   C47   S    
C42   C82   A    
N28   N32   A    
C86   H51   S    
C23   N23   A    
C5    C94   A    
N29   Ni6   S    
C39   H8    S    
C4    C87   A    
C44   H9    S    
N21   Ni3   S    
C15   C19   A    
N26   Ni7   S    
C8    C95   A    
C58   H27   S    
C50   C54   D    
N16   Ni7   S    
C30   C35   A    
C2    C85   A    
C68   C81   A    
N8    Ni7   S    
C60   H29   S    
C35   C37   S    
C19   H68   S    
C17   C82   S    
C56   H63   S    
N12   Ni2   S    
C10   C15   A    
C23   H23   S    
C37   H6    S    
C53   C64   S    
C47   H16   S    
C55   C62   S    
C29   C33   A    
C36   H72   S    
C33   C36   S    
N18   Ni2   S    
N4    N31   A    
C95   H60   S    
C88   H53   S    
C32   C39   S    
N28   Ni5   S    
C19   C26   A    
C70   N4    A    
C86   N11   A    
N2    Ni1   S    
C69   C82   A    
C24   H56   S    
C57   H26   S    
C5    C88   A    
C68   N2    A    
N22   Ni6   S    
N13   N26   A    
C85   N10   A    
C74   C77   A    
C10   C46   S    
N6    Ni5   S    
N1    N6    A    
C40   C80   A    
C67   H64   S    
C8    C92   A    
C72   N6    A    
C45   C89   A    
C4    C29   S    
C90   H54   S    
C8    C61   S    
C69   H42   S    
C63   H19   S    
C93   N18   A    
C23   C77   A    
C96   H61   S    
C40   H36   S    
C11   C31   A    
C70   H43   S    
N25   Ni8   S    
C46   H15   S    
C3    C86   A    
C9    C33   A    
N17   Ni8   S    
C68   H41   S    
C18   C25   A    
N23   Ni3   S    
N7    Ni8   S    
C72   C75   A    
N7    N27   A    
C37   H2    S    
C95   N20   A    
C57   C63   S    
C51   C79   S    
C25   C29   A    
C49   H31   S    
C92   H57   S    
C40   N28   A    
C26   H71   S    
C87   H52   S    
C27   C31   A    
C1    C75   A    
C28   C32   A    
C85   H50   S    
N5    Ni6   S    
C41   N29   A    
N15   N18   A    
C1    H1    S    
C54   C65   S    
C53   H22   S    
C94   H59   S    
N17   N20   A    
N27   Ni4   S    
N5    N12   A    
C84   H49   S    
N20   Ni4   S    
C16   C83   S    
C17   C21   A    
C21   H70   S    
C71   N5    A    
C36   H5    S    
C96   N21   A    
C73   N7    A    
N4    Ni3   S    
C72   H46   S    
C9    C14   A    
C74   N8    A    
C38   H7    S    
C20   H69   S    
C56   N24   A    
C34   C79   A    
N10   N24   A    
C11   C16   A    
C88   N14   A    
C15   C80   S    
C42   N30   A    
C16   C20   A    
C6    C93   A    
C41   C81   A    
C73   C79   A    
C49   C76   S    
C94   N19   A    
C43   H39   S    
C70   C83   A    
C38   C47   S    
C2    C27   S    
C66   H40   S    
C41   H37   S    
C5    C58   S    
C12   N12   A    
N11   Ni3   S    
C26   C30   A    
C47   H11   S    
C22   C27   A    
N10   Ni2   S    
C78   N26   A    
C28   C89   S    
N9    Ni1   S    
C36   C44   S    
N13   Ni4   S    
C50   H32   S    
C84   C89   A    
C52   C77   S    
C7    C60   S    
C12   H12   S    
N11   N25   A    
C59   H28   S    
C74   H48   S    
C93   H58   S    
C9    C44   S    
N9    N22   A    
N30   Ni7   S    
C92   N17   A    
C52   H35   S    
C6    C59   S    
C3    C67   A    
C45   H62   S    
C24   C28   A    
C20   C22   A    
C38   H3    S    
N8    N23   A    
C4    C78   A    
C87   N13   A    
C13   C48   S    
C43   N31   A    
C62   H18   S    
C71   H44   S    
N3    N30   A    
C66   C80   A    
N19   Ni1   S    
C51   H33   S    
C59   C63   D    
C31   C38   S    
C13   C17   A    
C60   C64   D    
N14   Ni5   S    
C12   C76   A    
C6    C90   A    
C50   C75   S    
C7    C91   A    
C91   H55   S    
C18   H66   S    
C39   H4    S    
C71   C76   A    
C25   H67   S    
C49   C53   D    
C46   H10   S    
C22   H45   S    
C1    N1    A    
N31   Ni8   S    
C42   H38   S    
C48   H13   S    
C51   C55   D    
N14   N19   A    
C69   N3    A    
C84   N9    A    
C73   H47   S    
C52   C57   D    
N3    Ni4   S    
N1    Ni1   S    
C10   C35   A    
C61   C65   D    
C45   N22   A    
C61   H30   S    
C90   N15   A    
C34   H34   S    
C78   H65   S    
N32   Ni2   S    
C21   C24   A    
C7    C96   A    
N15   Ni6   S    
C65   H21   S    
N16   N21   A    
C48   H17   S    
C2    C56   A    
C14   C81   S    
C37   C46   S    
C67   N25   A    
N2    N29   A    
C66   N32   A    
C91   N16   A    
C39   C48   S    
C44   H14   S    
