data_mof_unit_pretest_1304.cif
_audit_creation_date              2012-12-11T19:45:02-0500
_audit_creation_method            fapswitch 2.2
_symmetry_space_group_name_H-M    P1
_symmetry_Int_Tables_number       1
_space_group_crystal_system       triclinic
_cell_length_a                    8.327654
_cell_length_b                    15.045851
_cell_length_c                    19.110228
_cell_angle_alpha                 101.657207
_cell_angle_beta                  91.98909
_cell_angle_gamma                 99.163477
_cell_volume                      2309.58543591

loop_
_atom_site_label
_atom_site_type_symbol
_atom_type_description
_atom_site_fract_x
_atom_site_fract_y
_atom_site_fract_z
_atom_type_partial_charge
Ba1   Ba    Ba6+2 0.853900 0.540470 0.466700 1.700017
Ba2   Ba    Ba6+2 0.335940 0.459610 0.533310 1.697857
C1    C     C_3   0.785936 0.860909 0.267354 -0.375575
C2    C     C_R   0.019276 0.532981 0.727849 -0.035495
C3    C     C_R   0.847192 0.418660 0.808592 -0.171154
C4    C     C_3   0.097123 0.714338 0.282937 0.382174
C5    C     C_R   0.784955 0.421636 0.740682 0.048488
C6    C     C_R   0.345097 0.569906 0.189701 -0.167067
C7    C     C_R   0.415934 0.556452 0.253355 0.046016
C8    C     C_R   0.125924 0.446961 0.195662 -0.141374
C9    C     C_R   0.170164 0.459257 0.269927 0.039880
C10   C     C_R   0.975918 0.486802 0.844901 0.041206
C11   C     C_R   0.881668 0.469324 0.697724 -0.178403
C12   C     C_3   0.716207 0.776724 0.297656 0.289387
C13   C     C_R   0.207891 0.507352 0.153477 -0.013474
C14   C     C_R   0.322468 0.508036 0.296045 -0.255214
C15   C     C_R   0.752224 0.442852 0.960375 -0.063333
C16   C     C_3   0.102886 0.731836 0.207116 -0.315945
C17   C     C_R   0.648965 0.413509 0.009724 -0.084680
C18   C     C_R   0.702284 0.433905 0.081152 -0.040053
C19   C     C_R   0.861823 0.477063 0.101311 -0.043468
C20   C     C_R   0.980095 0.483384 0.051009 0.013001
C21   C     C_R   0.922450 0.471509 0.977201 0.069529
C22   C     C_R   0.149617 0.506813 0.074638 -0.008529
C23   C     C_3   0.459585 0.309561 0.311993 0.302734
C24   C     C_R   0.259299 0.527638 0.021198 0.041146
C25   C     C_R   0.201301 0.514618 0.947434 0.032193
C26   C     C_R   0.032681 0.490497 0.923979 0.013463
C27   C     C_R   0.428601 0.561236 0.037515 -0.118364
C28   C     C_3   0.316832 0.745143 0.736682 0.155662
C29   C     C_R   0.528230 0.595262 0.988213 -0.024021
C30   C     C_R   0.474027 0.570345 0.916578 -0.081254
C31   C     C_R   0.318287 0.522374 0.896877 -0.109803
C32   C     C_R   0.854017 0.173026 0.547850 -0.018461
C33   C     C_R   0.785426 0.079429 0.543077 -0.043116
C34   C     C_3   0.442650 0.280678 0.230741 -0.360664
C35   C     C_R   0.640655 0.892711 0.535347 -0.046001
C36   C     C_R   0.796996 0.928976 0.569321 -0.036109
C37   C     C_R   0.868011 0.020181 0.572782 -0.085091
C38   C     C_R   0.567860 0.799469 0.529916 0.075515
C39   C     C_R   0.401683 0.772041 0.507542 -0.196177
C40   C     C_3   0.340333 0.850605 0.760039 0.279206
C41   C     C_R   0.613515 0.194269 0.480581 0.014819
C42   C     C_R   0.542848 0.101758 0.476092 -0.036255
C43   C     C_R   0.627193 0.044579 0.508828 0.009959
C44   C     C_R   0.388569 0.065331 0.440900 -0.027940
C45   C     C_3   0.079959 0.275555 0.723239 0.316534
C46   C     C_R   0.312354 0.977336 0.442896 -0.012352
C47   C     C_R   0.391839 0.919429 0.475657 0.027900
C48   C     C_R   0.553141 0.952153 0.506779 0.026143
C49   C     C_R   0.315279 0.829234 0.476839 0.054350
C50   C     C_R   0.764093 0.229580 0.518789 -0.298310
C51   C     C_3   0.949113 0.254374 0.373158 0.312678
C52   C     C_3   0.916519 0.149571 0.352756 -0.385609
C53   C     C_3   0.808718 0.718264 0.691349 0.178705
C54   C     C_3   0.904829 0.801091 0.744314 -0.329131
C55   C     C_2   0.725401 0.643994 0.726220 0.763434
C56   C     C_3   0.126348 0.259100 0.796798 -0.210703
C57   C     C_2   0.548614 0.783883 0.319730 0.770980
C58   C     C_2   0.353930 0.064789 0.683982 0.851111
C59   C     C_2   0.693899 0.648440 0.010931 0.882072
C60   C     C_3   0.552430 0.205737 0.674409 0.299527
C61   C     C_3   0.528898 0.112717 0.697585 0.303938
C62   C     C_R   0.052723 0.549277 0.803295 -0.100000
H1    H     H_    0.793254 0.778137 0.346113 0.074393
H2    H     H_    0.920340 0.876098 0.275653 0.126841
H3    H     H_    0.960607 0.854681 0.715706 0.133055
H4    H     H_    0.003514 0.778881 0.772949 0.126924
H5    H     H_    0.823191 0.832162 0.783756 0.169553
H6    H     H_    0.743688 0.924060 0.296105 0.094891
H7    H     H_    0.341895 0.327207 0.330912 0.010521
H8    H     H_    0.556903 0.371155 0.326804 0.069790
H9    H     H_    0.343261 0.220531 0.213774 0.136506
H10   H     H_    0.413410 0.338352 0.207204 0.055476
H11   H     H_    0.558834 0.262015 0.210447 0.135046
H12   H     H_    0.472159 0.877995 0.758222 0.073349
H13   H     H_    0.748396 0.849600 0.209450 0.172985
H14   H     H_    0.068697 0.665688 0.167934 0.068514
H15   H     H_    0.146745 0.344112 0.719045 0.054546
H16   H     H_    0.947225 0.274838 0.718727 -0.006728
H17   H     H_    0.078943 0.308068 0.839183 0.052323
H18   H     H_    0.074867 0.187850 0.801035 0.210140
H19   H     H_    0.260405 0.269898 0.806338 0.140953
H20   H     H_    0.685410 0.228208 0.672398 -0.096880
H21   H     H_    0.494045 0.196856 0.619752 0.018996
H22   H     H_    0.603253 0.067988 0.664154 -0.077679
H23   H     H_    0.272271 0.880027 0.721314 0.046917
H24   H     H_    0.977984 0.674048 0.289183 0.086182
H25   H     H_    0.144637 0.606573 0.828657 0.087537
H26   H     H_    0.791109 0.363548 0.832459 0.113363
H27   H     H_    0.398422 0.629574 0.170092 0.105767
H28   H     H_    0.024091 0.393727 0.172914 0.080235
H29   H     H_    0.841924 0.462738 0.642129 0.070689
H30   H     H_    0.369869 0.506979 0.349271 0.066310
H31   H     H_    0.690856 0.448206 0.911700 0.070077
H32   H     H_    0.521571 0.386371 0.993977 0.082780
H33   H     H_    0.616529 0.422672 0.121016 0.090981
H34   H     H_    0.835477 0.279277 0.389507 0.005251
H35   H     H_    0.187804 0.670364 0.288631 -0.029608
H36   H     H_    0.892807 0.507245 0.156543 0.123770
H37   H     H_    0.492474 0.555795 0.085201 0.105769
H38   H     H_    0.553990 0.583676 0.875601 0.191468
H39   H     H_    0.288564 0.493527 0.841306 0.116670
H40   H     H_    0.866104 0.888573 0.595306 0.097834
H41   H     H_    0.987651 0.043705 0.599832 0.140661
H42   H     H_    0.189511 0.956245 0.418715 0.093655
H43   H     H_    0.321239 0.104751 0.413011 0.095912
H44   H     H_    0.343996 0.702069 0.506853 0.071783
H45   H     H_    0.043641 0.276041 0.418407 0.070765
H46   H     H_    0.016777 0.777031 0.197002 0.125373
H47   H     H_    0.816100 0.301151 0.522452 0.058234
H48   H     H_    0.226861 0.764065 0.197195 0.168276
H49   H     H_    0.291763 0.712070 0.782478 0.067428
H50   H     H_    0.433035 0.727265 0.717292 0.081376
H51   H     H_    0.404430 0.994287 0.939920 0.382400
H52   H     H_    0.829171 0.694592 0.828763 0.313496
H53   H     H_    0.382981 0.707847 0.365490 0.260162
H54   H     H_    0.137368 0.027682 0.723074 0.315569
H55   H     H_    0.499393 0.229110 0.857340 0.330912
H56   H     H_    0.816503 0.125743 0.309836 0.137833
H57   H     H_    0.858446 0.712348 0.091689 0.315525
H58   H     H_    0.880911 0.119963 0.399610 0.059781
H59   H     H_    0.028368 0.123989 0.333303 0.124783
H60   H     H_    0.893857 0.687857 0.654327 0.047919
O1    O     O_2   0.873950 0.434950 0.324050 -0.459776
O2    O     O_2   0.187579 0.181951 0.537255 -0.463390
O3    O     O_3   0.120718 0.205672 0.669983 -0.575655
O4    O     O_3   0.122400 0.443310 0.412980 -0.496729
O5    O     O_3   0.579970 0.613770 0.540070 -0.440470
O6    O     O_2   0.337870 0.272490 0.457870 -0.468119
O7    O     O_3   0.499702 0.236551 0.340821 -0.639631
O8    O     O_2   0.465927 0.445429 0.757947 -0.475593
O9    O     O_3   0.482310 0.270197 0.722091 -0.606236
O10   O     O_3   0.662890 0.605900 0.373340 -0.447146
O11   O     O_2   0.722139 0.516971 0.247470 -0.516688
O12   O     O_3   0.685673 0.749516 0.656656 -0.660581
O13   O     O_3   0.001559 0.288153 0.313358 -0.629522
O14   O     O_3   0.718608 0.693343 0.247635 -0.613019
O15   O     O_2   0.851830 0.727540 0.542170 -0.474743
O16   O     O_3   0.085020 0.656200 0.410840 -0.507427
O17   O     O_2   0.973977 0.814190 0.452275 -0.500349
O18   O     O_2   0.155443 0.951171 0.847501 -0.248274
O19   O     O_2   0.217830 0.813001 0.884844 -0.310707
O20   O     O_3   0.449413 0.954281 0.900283 -0.413642
O21   O     O_2   0.633327 0.580556 0.687809 -0.525693
O22   O     O_R   0.747022 0.642930 0.799087 -0.759614
O23   O     O_3   0.128640 0.798038 0.334299 -0.604118
O24   O     O_2   0.456383 0.821425 0.289106 -0.614371
O25   O     O_R   0.498492 0.740419 0.374064 -0.806414
O26   O     O_2   0.301525 0.027727 0.622745 -0.676304
O27   O     O_R   0.251195 0.062623 0.740032 -0.652578
O28   O     O_2   0.641143 0.033131 0.799402 -0.227608
O29   O     O_2   0.763218 0.191610 0.803199 -0.364943
O30   O     O_3   0.473255 0.160988 0.847719 -0.427506
O31   O     O_2   0.785712 0.670430 0.966411 -0.585163
O32   O     O_R   0.744746 0.674892 0.083570 -0.747115
O33   O     O_2   0.315750 0.565080 0.676000 -0.421690
O34   O     O_3   0.067310 0.556770 0.587020 -0.469197
O35   O     O_3   0.526830 0.394180 0.626670 -0.423733
O36   O     O_3   0.194540 0.712217 0.680461 -0.667359
O37   O     O_3   0.609740 0.386310 0.459940 -0.484548
O38   O     O_3   0.104690 0.343880 0.589170 -0.496506
P1    P     P_3+3 0.041310 0.408750 0.334260 0.974493
P2    P     P_3+3 0.676060 0.715830 0.563200 1.034533
P3    P     P_3+3 0.123486 0.775200 0.421277 0.952519
P4    P     P_3+3 0.148400 0.591330 0.665750 0.974159
P5    P     P_3+3 0.064385 0.225336 0.585959 0.959586
P6    P     P_3+3 0.632271 0.595269 0.280650 0.958395
P7    P     P_3+3 0.517191 0.270676 0.434336 0.936584
P8    P     P_3+3 0.567442 0.380887 0.712935 1.020583
S1    S     S_3+6 0.283806 0.891250 0.850016 -0.028186
S2    S     S_3+6 0.606354 0.124464 0.788719 -0.024356

loop_
_geom_bond_atom_site_label_1
_geom_bond_atom_site_label_2
_ccdc_geom_bond_type
C53   C54   S    
C4    O23   S    
C39   H44   S    
C52   H56   S    
C29   C59   S    
C17   C18   A    
Ba1   O4    S    
C45   H15   S    
C52   H59   S    
C40   H12   S    
Ba2   O38   S    
C41   P7    S    
C51   C52   S    
C25   C31   A    
C28   O36   S    
C12   C57   S    
O20   S1    S    
C24   C25   A    
C60   C61   S    
C10   C26   S    
C58   C61   S    
C51   O13   S    
C62   H25   S    
C60   O9    S    
O15   P2    D    
O35   P8    S    
C7    C14   A    
C16   H48   S    
C38   P2    S    
C35   C38   A    
Ba1   O5    S    
C8    C13   A    
C56   H18   S    
C28   H50   S    
C36   C37   A    
C32   C33   A    
C4    H35   S    
C41   C50   A    
O6    P7    D    
C53   O12   S    
Ba2   O5    S    
C4    H24   S    
O14   P6    S    
Ba1   Ba2   S    
C9    C14   A    
C2    C11   A    
Ba2   O33   S    
C36   H40   S    
O23   P3    S    
Ba2   O6    S    
H51   O20   S    
C46   H42   S    
C18   H33   S    
C12   O14   S    
Ba1   P2    S    
Ba2   O35   S    
C47   C49   A    
O10   P6    S    
O11   P6    D    
C23   H7    S    
O36   P4    S    
Ba2   P4    S    
C3    H26   S    
Ba1   O15   S    
Ba2   O34   S    
O37   P7    S    
C57   O24   D    
O7    P7    S    
C52   H58   S    
C8    H28   S    
C55   O22   S    
O28   S2    D    
O1    P1    D    
O8    P8    D    
C45   H16   S    
C59   O31   D    
Ba2   O37   S    
C42   C44   A    
C57   O25   S    
C4    C16   S    
C60   H21   S    
C44   C46   A    
O30   S2    S    
C1    H6    S    
C3    C10   A    
O2    P5    D    
C34   H9    S    
C56   H17   S    
O13   P1    S    
C19   H36   S    
C6    C7    A    
C58   O26   D    
C50   H47   S    
C54   H4    S    
O4    P1    S    
O5    P2    S    
C11   H29   S    
C58   O27   S    
C33   C37   A    
O9    P8    S    
C35   C36   A    
C34   H11   S    
C55   O21   D    
C29   C30   A    
C16   H14   S    
C44   H43   S    
C9    P1    S    
C27   H37   S    
C6    H27   S    
C15   C21   A    
C21   C26   A    
Ba1   O16   S    
C1    C12   S    
C34   H10   S    
C15   H31   S    
C13   C22   S    
C54   H5    S    
H55   O30   S    
C8    C9    A    
C53   C55   S    
C61   H22   S    
C20   C22   A    
C49   P3    S    
C1    H2    S    
C32   P5    S    
C1    H13   S    
C59   O32   S    
C42   C43   A    
O34   P4    S    
C3    C5    A    
O12   P2    S    
C51   H45   S    
O16   P3    S    
C37   H41   S    
C10   C62   A    
C60   H20   S    
C53   H60   S    
C38   C39   A    
C31   H39   S    
C32   C50   A    
C7    P6    S    
C16   H46   S    
C22   C24   A    
O33   P4    D    
C45   O3    S    
C51   H34   S    
C6    C13   A    
C54   H3    S    
C2    C62   A    
C14   H30   S    
Ba1   O1    S    
O17   P3    D    
O19   S1    D    
C27   C29   A    
C56   H19   S    
C30   C31   A    
C45   C56   S    
H52   O22   S    
C35   C48   A    
Ba1   O34   S    
C61   S2    S    
C23   H8    S    
C43   C48   A    
C41   C42   A    
C23   O7    S    
C46   C47   A    
O29   S2    D    
C15   C17   A    
C12   H1    S    
C2    P4    S    
C30   H38   S    
H54   O27   S    
C40   S1    S    
C23   C34   S    
Ba1   O37   S    
O38   P5    S    
H57   O32   S    
C5    C11   A    
C18   C19   A    
Ba1   P1    S    
C24   C27   A    
O3    P5    S    
C47   C48   A    
C5    P8    S    
C25   C26   A    
C20   C21   A    
C28   C40   S    
H53   O25   S    
C40   H23   S    
C19   C20   A    
C39   C49   A    
C17   H32   S    
Ba1   O10   S    
Ba2   O4    S    
O18   S1    D    
C28   H49   S    
C33   C43   A    
