data_mof_unit_pretest_717.cif
_audit_creation_date              2012-12-11T14:17:42-0500
_audit_creation_method            fapswitch 2.2
_symmetry_space_group_name_H-M    P1
_symmetry_Int_Tables_number       1
_space_group_crystal_system       triclinic
_cell_length_a                    6.942616
_cell_length_b                    13.639259
_cell_length_c                    20.436927
_cell_angle_alpha                 102.042358
_cell_angle_beta                  90.644958
_cell_angle_gamma                 90.137679
_cell_volume                      1892.48696929

loop_
_atom_site_label
_atom_site_type_symbol
_atom_type_description
_atom_site_fract_x
_atom_site_fract_y
_atom_site_fract_z
_atom_type_partial_charge
O1    O     O_R   0.506860 0.599390 0.449240 -0.535538
O2    O     O_R   0.180220 0.594600 0.586780 -0.524950
O3    O     O_R   0.004500 0.400610 0.550760 -0.528925
C1    C     C_R   0.348479 0.612243 0.614688 0.748348
O4    O     O_R   0.177490 0.611290 0.451970 -0.545114
O5    O     O_R   0.001750 0.417420 0.414990 -0.554006
C2    C     C_R   0.345405 0.637830 0.435014 0.719696
O6    O     O_R   0.509610 0.582580 0.585010 -0.550281
O7    O     O_3   0.337420 0.436370 0.488020 -0.373814
V1    V     V_3+5 0.064680 0.511800 0.502220 1.512116
O8    O     O_R   0.671710 0.405400 0.413220 -0.522592
C3    C     C_R   0.838844 0.388479 0.385400 0.704974
O9    O     O_R   0.674440 0.388710 0.548030 -0.549041
C4    C     C_R   0.844117 0.363250 0.565814 0.725463
V2    V     V_3+5 0.564010 0.488200 0.497780 1.505683
O10   O     O_3   0.841140 0.563630 0.511980 -0.370641
C5    C     C_R   0.971292 0.123055 0.616657 -0.120773
H1    H     H_    0.958230 0.172490 0.523829 0.147780
H2    H     H_    0.024891 0.001607 0.700524 0.167433
H3    H     H_    0.021303 0.049119 0.592822 0.142627
C6    C     C_R   0.860312 0.286608 0.606096 -0.056746
C7    C     C_R   0.800836 0.310419 0.928016 -0.136246
C8    C     C_R   0.801043 0.389020 0.894725 -0.111019
C9    C     C_R   0.851028 0.373607 0.827098 -0.028599
C10   C     C_R   0.877652 0.273576 0.789331 0.018371
C11   C     C_R   0.894762 0.195182 0.825793 0.044363
C12   C     C_R   0.888115 0.247275 0.717599 0.082087
C13   C     C_R   0.948103 0.149099 0.686249 0.111263
C14   C     C_R   0.980870 0.076761 0.724188 -0.118004
C15   C     C_R   0.948755 0.098336 0.792443 -0.126198
C16   C     C_R   0.831614 0.312548 0.675345 -0.136188
C17   C     C_R   0.932587 0.192377 0.577143 -0.167553
C18   C     C_R   0.856883 0.215053 0.895204 -0.088516
H4    H     H_    0.764793 0.383791 0.694810 0.119382
H5    H     H_    0.767603 0.325314 0.980857 0.166287
H6    H     H_    0.774718 0.463874 0.923538 0.174970
H7    H     H_    0.967592 0.038017 0.818938 0.139596
C19   C     C_2   0.992596 0.283200 0.286579 -0.183519
C20   C     C_2   0.839488 0.336854 0.314194 0.142392
H8    H     H_    0.121123 0.279612 0.316765 0.157373
C21   C     C_2   0.998193 0.228851 0.215393 -0.130511
C22   C     C_2   0.864165 0.160509 0.186720 -0.217849
H9    H     H_    0.119653 0.244687 0.186136 0.196199
C23   C     C_2   0.231372 0.760702 0.793821 -0.211076
C24   C     C_2   0.357912 0.835690 0.815155 0.129162
H10   H     H_    0.133421 0.740405 0.830025 0.108767
C25   C     C_2   0.205426 0.706682 0.723166 0.055217
C26   C     C_2   0.358942 0.670559 0.684748 -0.298566
H11   H     H_    0.502095 0.682155 0.706924 0.186800
C27   C     C_R   0.299536 0.889236 0.388485 0.013324
H12   H     H_    0.301736 0.834627 0.480213 0.139579
H13   H     H_    0.293722 0.014227 0.300312 0.179873
C28   C     C_R   0.349592 0.715711 0.395475 -0.064179
C29   C     C_R   0.386239 0.685084 0.072658 -0.202410
C30   C     C_R   0.392106 0.609442 0.108845 0.341277
C31   C     C_R   0.377434 0.632581 0.178391 -0.172538
C32   C     C_R   0.355642 0.733031 0.213836 0.034857
C33   C     C_R   0.344240 0.809542 0.175986 0.053649
C34   C     C_R   0.345079 0.759928 0.285371 0.083654
C35   C     C_R   0.315600 0.862312 0.317536 0.059341
C36   C     C_R   0.306977 0.935401 0.278309 -0.125383
C37   C     C_R   0.319393 0.909483 0.209239 -0.171049
C38   C     C_R   0.363800 0.688270 0.326073 -0.197032
C39   C     C_R   0.317874 0.815239 0.426318 -0.201520
C40   C     C_R   0.361685 0.784785 0.105384 -0.128851
H14   H     H_    0.386764 0.609859 0.305653 0.131595
H15   H     H_    0.401122 0.666099 0.018757 0.142834
H16   H     H_    0.382786 0.569890 0.202728 0.170177
H17   H     H_    0.309131 0.969214 0.181925 0.154437
O11   O     O_R   0.203230 0.917310 0.915020 -0.553794
O12   O     O_R   0.535500 0.888690 0.048040 -0.542848
O13   O     O_R   0.711080 0.082610 0.085000 -0.519664
C41   C     C_R   0.367486 0.862228 0.065120 0.699935
O14   O     O_R   0.532630 0.905370 0.913230 -0.529086
O15   O     O_R   0.708190 0.099410 0.949230 -0.531486
C42   C     C_R   0.363971 0.887789 0.885804 0.705906
O16   O     O_R   0.206120 0.900510 0.050790 -0.546822
O17   O     O_3   0.375360 0.063570 0.011990 -0.358757
V3    V     V_3+5 0.648170 0.988200 0.997780 1.529977
O18   O     O_R   0.038240 0.111390 0.951940 -0.539916
C43   C     C_R   0.868717 0.136923 0.934470 0.709111
O19   O     O_R   0.041120 0.094710 0.086750 -0.543020
C44   C     C_R   0.873444 0.111207 0.114792 0.707460
V4    V     V_3+5 0.148810 0.011930 0.002180 1.499268
O20   O     O_3   0.871750 0.936430 0.988010 -0.380495
Br1   Br    Br    0.623462 0.364638 0.260587 -0.516348
C45   C     C_2   0.711152 0.125462 0.227354 0.853764
O21   O     O_2   0.543582 0.122946 0.208367 -0.528536
O22   O     O_R   0.755533 0.093863 0.286594 -0.641699
H18   H     H_    0.899093 0.090428 0.295179 0.282118
Br2   Br    Br    0.516014 0.892090 0.755397 -0.528674
C46   C     C_2   0.002958 0.686148 0.701064 0.789724
O23   O     O_2   0.891215 0.755926 0.704033 -0.538173
O24   O     O_R   0.937436 0.587424 0.680485 -0.643385
H19   H     H_    0.794997 0.583113 0.669160 0.283614
C47   C     C_2   0.258046 0.992587 0.425603 0.742338
O25   O     O_2   0.133183 0.042596 0.405593 -0.577055
O26   O     O_R   0.356210 0.030776 0.485682 -0.653687
H20   H     H_    0.315337 0.101492 0.506837 0.296405
Br3   Br    Br    0.422914 0.473206 0.062967 -0.536840
C48   C     C_2   0.906800 0.465048 0.803634 0.751794
O27   O     O_2   0.051077 0.465178 0.769866 -0.537981
O28   O     O_R   0.801091 0.553083 0.824173 -0.664910
H21   H     H_    0.859375 0.612695 0.809195 0.300045

loop_
_geom_bond_atom_site_label_1
_geom_bond_atom_site_label_2
_ccdc_geom_bond_type
C33   C37   A    
C45   O21   D    
C48   O27   D    
C27   C39   A    
C21   C22   D    
O18   V4    S    
O12   V3    S    
C29   C40   A    
C7    H5    S    
C6    C16   A    
O14   C42   A    
C24   C42   S    
C4    C6    S    
C13   C14   A    
O13   V3    S    
H13   C36   S    
O5    C3    A    
C19   C20   D    
C28   C39   A    
C32   C34   A    
V2    O10   S    
O26   H20   S    
C5    H3    S    
C40   C41   S    
C31   C32   A    
C9    C48   S    
C25   C46   S    
C11   C18   A    
O8    V2    S    
C47   O26   S    
C30   Br3   S    
C8    C9    A    
O1    V2    S    
O11   V4    S    
O7    V1    S    
C23   C25   S    
C1    O6    A    
C38   H14   S    
C34   C35   A    
C48   O28   S    
O9    C4    A    
C21   H9    S    
C36   C37   A    
C23   H10   S    
C6    C17   A    
C22   C44   S    
C12   C16   A    
C9    C10   A    
C19   C21   S    
O4    C2    A    
O17   V3    S    
O15   C43   A    
C29   H15   S    
O16   V4    S    
C10   C11   A    
C31   H16   S    
O19   C44   A    
C15   H7    S    
C35   C36   A    
O2    C1    A    
C14   C15   A    
C33   C40   A    
C25   C26   D    
C47   O25   D    
C30   C31   A    
C46   O24   S    
C16   H4    S    
V4    O20   S    
O3    C4    A    
C26   H11   S    
C11   C15   A    
O6    V2    S    
O19   V4    S    
O14   V3    S    
C45   O22   S    
O11   C42   A    
H1    C17   S    
C2    C28   S    
O2    V1    S    
V3    O20   S    
C23   C24   D    
O12   C41   A    
C1    C26   S    
C7    C18   A    
C29   C30   A    
O1    C2    A    
C5    C13   A    
H12   C39   S    
O18   C43   A    
O5    V1    S    
O8    C3    A    
C10   C12   A    
C34   C38   A    
C27   C35   A    
C3    C20   S    
O9    V2    S    
O7    V2    S    
O4    V1    S    
O3    V1    S    
V1    O10   S    
C19   H8    S    
C28   C38   A    
C27   C47   S    
C32   C33   A    
O15   V3    S    
C46   O23   D    
O24   H19   S    
C24   Br2   S    
O13   C44   A    
O17   V4    S    
C37   H17   S    
C8    H6    S    
O28   H21   S    
C5    C17   A    
C41   O16   A    
C7    C8    A    
C22   C45   S    
C20   Br1   S    
O22   H18   S    
C18   C43   S    
C12   C13   A    
H2    C14   S    
