data_mof_unit_pretest_340.cif
_audit_creation_date              2013-03-05T15:59:23-0500
_audit_creation_method            fapswitch 2.2
_symmetry_space_group_name_H-M    P1
_symmetry_Int_Tables_number       1
_space_group_crystal_system       triclinic
_cell_length_a                    10.523541
_cell_length_b                    12.665238
_cell_length_c                    13.022011
_cell_angle_alpha                 82.197977
_cell_angle_beta                  91.769798
_cell_angle_gamma                 102.891947
_cell_volume                      1676.20243973

loop_
_atom_site_label
_atom_site_type_symbol
_atom_site_description
_atom_site_fract_x
_atom_site_fract_y
_atom_site_fract_z
_atom_type_partial_charge
O1    O     O_R   0.467970 0.366730 0.627150 -0.556521
O2    O     O_R   0.510820 0.544830 0.662520 -0.617715
C1    C     C_R   0.485836 0.438684 0.691975 1.057973
O3    O     O_R   0.664630 0.410960 0.482340 -0.618670
O4    O     O_R   0.707470 0.589060 0.517710 -0.637578
C2    C     C_R   0.742516 0.501448 0.499347 0.916419
Zn1   Zn    Zn3+2 0.471390 0.381080 0.476380 0.984482
Zn2   Zn    Zn3+2 0.528610 0.618920 0.523620 0.953137
O5    O     O_R   0.489180 0.455170 0.337480 -0.631571
O6    O     O_R   0.532030 0.633270 0.372850 -0.640608
O7    O     O_R   0.292530 0.410940 0.482290 -0.639487
O8    O     O_R   0.335370 0.589040 0.517660 -0.618911
C3    C     C_R   0.515610 0.560928 0.308328 0.841440
C4    C     C_R   0.257767 0.499166 0.498750 0.918196
C5    C     C_3   0.935718 0.413361 0.563025 -0.154974
C6    C     C_3   0.046698 0.504280 0.594815 0.027835
H1    H     H_    0.880336 0.342034 0.614679 0.196851
C7    C     C_3   0.122171 0.497660 0.498799 0.000547
C8    C     C_3   0.012858 0.406988 0.465760 -0.169875
C9    C     C_3   0.952541 0.496049 0.402456 -0.173153
C10   C     C_3   0.064264 0.586804 0.435431 -0.182905
C11   C     C_3   0.987227 0.593694 0.532723 -0.215135
C12   C     C_3   0.878317 0.502743 0.499686 0.013027
H2    H     H_    0.026815 0.331054 0.438401 0.183960
H3    H     H_    0.909411 0.493207 0.323706 0.151754
H4    H     H_    0.120708 0.657081 0.383147 0.145012
H5    H     H_    0.973584 0.669688 0.560162 0.145251
C13   C     C_R   0.704261 0.699515 0.069745 -0.027975
H6    H     H_    0.688671 0.741927 0.223708 0.200710
H7    H     H_    0.811338 0.675257 0.887670 0.107862
C14   C     C_R   0.546649 0.597046 0.199512 -0.107337
C15   C     C_R   0.382657 0.303195 0.838841 0.288214
C16   C     C_R   0.364508 0.269837 0.946505 -0.120204
C17   C     C_R   0.436712 0.335871 0.016431 0.407095
C18   C     C_R   0.516849 0.439517 0.978125 -0.100732
C19   C     C_R   0.556903 0.457843 0.874530 -0.032397
C20   C     C_R   0.557492 0.525935 0.038629 0.110865
C21   C     C_R   0.660938 0.616399 0.004835 0.091181
C22   C     C_R   0.722160 0.616692 0.910589 -0.340801
C23   C     C_R   0.673338 0.536895 0.846594 0.072694
C24   C     C_R   0.492939 0.525991 0.130183 -0.248318
C25   C     C_R   0.649046 0.685867 0.168890 -0.165195
C26   C     C_R   0.478386 0.397544 0.803214 -0.108110
H8    H     H_    0.404763 0.465638 0.152637 0.206687
C27   C     C_R   0.315592 0.083533 0.348588 -0.181108
H9    H     H_    0.284357 0.879736 0.315541 0.166415
H10   H     H_    0.243196 0.059175 0.290186 0.213788
N1    N     N_R   0.432930 0.222190 0.444670 -0.167572
C28   C     C_R   0.658070 0.799746 0.628988 -0.081915
C29   C     C_R   0.695013 0.904633 0.657202 -0.045485
C30   C     C_R   0.634670 0.986075 0.608391 -0.175542
C31   C     C_R   0.539716 0.962724 0.530771 -0.002231
C32   C     C_R   0.508165 0.854678 0.504404 0.240890
C33   C     C_R   0.475366 0.041772 0.477870 0.000210
C34   C     C_R   0.381943 0.009676 0.400692 0.057974
C35   C     C_R   0.354789 0.903866 0.375324 -0.234265
C36   C     C_R   0.417866 0.827727 0.426127 -0.182623
C37   C     C_R   0.498894 0.151482 0.497831 -0.113130
C38   C     C_R   0.341070 0.189473 0.371077 0.594182
N2    N     N_R   0.566370 0.776980 0.554790 -0.124117
H11   H     H_    0.568323 0.182939 0.554763 0.159399
H12   H     H_    0.703056 0.735475 0.665686 0.116325
H13   H     H_    0.664252 0.066484 0.631527 0.181273
H14   H     H_    0.394631 0.748206 0.402233 0.199498
C39   C     C_2   0.096589 0.507801 0.703713 0.416993
H15   H     H_    0.031835 0.513881 0.764654 0.081458
O9    O     O_2   0.209219 0.503625 0.724786 -0.567493
O10   O     O_3   0.308397 0.245709 0.766713 -0.726008
H16   H     H_    0.295614 0.166571 0.791486 0.321665
O11   O     O_3   0.434190 0.294263 0.120215 -0.690480
H17   H     H_    0.519413 0.325023 0.151225 0.337997
C40   C     C_2   0.264240 0.170222 0.985321 0.506474
H18   H     H_    0.184450 0.137498 0.935796 0.072245
O12   O     O_2   0.268479 0.123273 0.073254 -0.500141
C41   C     C_2   0.758832 0.527093 0.762113 0.350511
H19   H     H_    0.829491 0.597979 0.727293 0.030048
O13   O     O_2   0.756671 0.438098 0.735266 -0.628546
O14   O     O_3   0.270006 0.257312 0.316558 -0.740750
H20   H     H_    0.296683 0.329949 0.337713 0.374537
C42   C     C_2   0.797356 0.927595 0.736543 0.413169
H21   H     H_    0.846365 0.863951 0.769434 0.019919
O15   O     O_2   0.828624 0.017451 0.765787 -0.547075
C43   C     C_2   0.807643 0.799059 0.038054 0.422499
H22   H     H_    0.838550 0.822545 0.958272 0.065676
O16   O     O_2   0.858725 0.858225 0.101427 -0.547688

loop_
_geom_bond_atom_site_label_1
_geom_bond_atom_site_label_2
_geom_bond_distance
_ccdc_geom_bond_type
C34   C35   1.389291 A    
C40   O12   1.220883 D    
C14   C25   1.396244 A    
H6    C25   1.083823 S    
C7    C10   1.532976 S    
C4    C7    1.422831 S    
C8    C9    1.545809 S    
C10   H4    1.110463 S    
C5    C8    1.546042 S    
C1    C26   1.469631 S    
C28   N2    1.357139 A    
N1    C38   1.377114 A    
C18   C20   1.416355 A    
C7    C8    1.530130 S    
O4    C2    1.297913 A    
O7    C4    1.296397 A    
C9    H3    1.110354 S    
C5    C6    1.536485 S    
C35   C36   1.376054 A    
Zn1   O5    1.915437 S    
C17   C18   1.427380 A    
O5    C3    1.310651 A    
C16   C40   1.492111 S    
C18   C19   1.399227 A    
O10   H16   0.990709 S    
C39   O9    1.219384 D    
O11   H17   0.991767 S    
C17   O11   1.381124 S    
C15   O10   1.381821 S    
C37   H11   1.076583 S    
C5    C12   1.532175 S    
C10   C11   1.547583 S    
C13   C43   1.489237 S    
O3    Zn1   1.984806 S    
C38   O14   1.374708 S    
C32   N2    1.357537 A    
C31   C33   1.421933 A    
C29   C30   1.400203 A    
C27   H10   1.084905 S    
C30   C31   1.412284 A    
C19   C23   1.420337 A    
C30   H13   1.077427 S    
C42   O15   1.221180 D    
C22   C23   1.396549 A    
C32   C36   1.395859 A    
O14   H20   0.974586 S    
C42   H21   1.085037 S    
C15   C16   1.414321 A    
O1    C1    1.304239 A    
Zn1   O7    2.006557 S    
C41   H19   1.084877 S    
C20   C21   1.423946 A    
C43   H22   1.080473 S    
C9    C12   1.529777 S    
C13   C21   1.426217 A    
Zn2   O8    1.984809 S    
C16   C17   1.409409 A    
C6    C7    1.523385 S    
C41   O13   1.219943 D    
O3    C2    1.293375 A    
C43   O16   1.221586 D    
O8    C4    1.293098 A    
C39   H15   1.083256 S    
C11   H5    1.110345 S    
C24   H8    1.081848 S    
C31   C32   1.420743 A    
C36   H14   1.068384 S    
C33   C37   1.414278 A    
C5    H1    1.110181 S    
C33   C34   1.418955 A    
C27   C38   1.378136 A    
C6    C11   1.537624 S    
C28   H12   1.080496 S    
C14   C24   1.380752 A    
O1    Zn1   1.947703 S    
C3    C14   1.452513 S    
O2    Zn2   1.915436 S    
C40   H18   1.084701 S    
O6    C3    1.305631 A    
C29   C42   1.478201 S    
O4    Zn2   2.006554 S    
N1    C37   1.357381 A    
C23   C41   1.477548 S    
Zn1   N1    2.058113 S    
O2    C1    1.316076 A    
Zn2   N2    2.045925 S    
C21   C22   1.402794 A    
C2    C12   1.425411 S    
C13   C25   1.405448 A    
C15   C26   1.413936 A    
H7    C22   1.080074 S    
C8    H2    1.110273 S    
C20   C24   1.390449 A    
C9    C10   1.545218 S    
C27   C34   1.383034 A    
Zn2   O6    1.947706 S    
C28   C29   1.394297 A    
H9    C35   1.084760 S    
C11   C12   1.529884 S    
C19   C26   1.411384 A    
C6    C39   1.499767 S    
