data_mof_unit_pretest_1670.cif
_audit_creation_date              2012-12-10T17:15:53-0500
_audit_creation_method            fapswitch 2.2
_symmetry_space_group_name_H-M    P1
_symmetry_Int_Tables_number       1
_space_group_crystal_system       triclinic
_cell_length_a                    23.679943
_cell_length_b                    23.679945
_cell_length_c                    47.116145
_cell_angle_alpha                 90.000043
_cell_angle_beta                  90.000058
_cell_angle_gamma                 90.000015
_cell_volume                      26419.8952666

loop_
_atom_site_label
_atom_site_type_symbol
_atom_type_description
_atom_site_fract_x
_atom_site_fract_y
_atom_site_fract_z
_atom_type_partial_charge
C1    C     C_R   0.000000 0.391524 0.500000 0.824385
C2    C     C_R   0.608476 1.000000 0.500000 0.824383
C3    C     C_R   0.000000 0.608476 0.500000 0.824384
C4    C     C_R   0.391524 0.000000 0.500000 0.824384
C5    C     C_R   0.500000 0.891524 0.000000 0.824383
C6    C     C_R   0.108476 0.500000 0.000000 0.824381
C7    C     C_R   0.500000 0.108476 0.000000 0.824382
C8    C     C_R   0.891524 0.500000 0.000000 0.824382
C9    C     C_R   1.000000 0.500000 0.354547 0.379135
C10   C     C_R   0.500000 1.000000 0.354548 0.379134
C11   C     C_R   0.000000 0.500000 0.645452 0.379135
C12   C     C_R   0.500000 0.000000 0.645452 0.379137
C13   C     C_R   0.500000 1.000000 0.854548 0.379134
C14   C     C_R   0.000000 0.500000 0.854548 0.379134
C15   C     C_R   0.500000 1.000000 0.145452 0.379133
C16   C     C_R   0.000000 0.500000 0.145452 0.379126
C17   C     C_1   1.000000 0.330407 0.500000 -0.168317
C18   C     C_1   0.669593 1.000000 0.500000 -0.168317
C19   C     C_1   1.000000 0.669593 0.500000 -0.168317
C20   C     C_1   0.330407 1.000000 0.500000 -0.168317
C21   C     C_1   0.500000 0.830407 0.000000 -0.168317
C22   C     C_1   0.169593 0.500000 1.000000 -0.168317
C23   C     C_1   0.500000 0.169593 1.000000 -0.168317
C24   C     C_1   0.830407 0.500000 0.000000 -0.168317
C25   C     C_1   1.000000 0.279188 0.500000 0.014661
C26   C     C_1   0.720812 1.000000 0.500000 0.014661
C27   C     C_1   0.000000 0.720812 0.500000 0.014661
C28   C     C_1   0.279188 1.000000 0.500000 0.014661
C29   C     C_1   0.500000 0.779188 0.000000 0.014660
C30   C     C_1   0.220812 0.500000 1.000000 0.014660
C31   C     C_1   0.500000 0.220812 1.000000 0.014660
C32   C     C_1   0.779188 0.500000 0.000000 0.014660
C33   C     C_1   1.000000 0.219066 0.500000 0.016191
C34   C     C_1   0.780934 1.000000 0.500000 0.016191
C35   C     C_1   1.000000 0.780934 0.500000 0.016191
C36   C     C_1   0.219066 1.000000 0.500000 0.016191
C37   C     C_1   0.500000 0.719066 0.000000 0.016190
C38   C     C_1   0.280934 0.500000 1.000000 0.016190
C39   C     C_1   0.500000 0.280934 1.000000 0.016190
C40   C     C_1   0.719066 0.500000 0.000000 0.016190
C41   C     C_1   1.000000 0.167847 0.500000 -0.162077
C42   C     C_1   0.832153 1.000000 0.500000 -0.162077
C43   C     C_1   1.000000 0.832153 0.500000 -0.162077
C44   C     C_1   0.167847 0.000000 0.500000 -0.162077
C45   C     C_1   0.500000 0.667847 0.000000 -0.162078
C46   C     C_1   0.332153 0.500000 1.000000 -0.162078
C47   C     C_1   0.500000 0.332153 1.000000 -0.162077
C48   C     C_1   0.667847 0.500000 0.000000 -0.162078
C49   C     C_R   0.106729 1.000000 0.500000 0.799784
C50   C     C_R   0.000000 0.106729 0.500000 0.799784
C51   C     C_R   0.893271 0.000000 0.500000 0.799784
C52   C     C_R   0.000000 0.893271 0.500000 0.799784
C53   C     C_R   0.606729 0.500000 0.000000 0.799785
C54   C     C_R   0.500000 0.606729 0.000000 0.799785
C55   C     C_R   0.393271 0.500000 1.000000 0.799785
C56   C     C_R   0.500000 0.393271 0.000000 0.799785
C57   C     C_R   1.000000 0.500000 0.445339 0.826095
C58   C     C_R   0.500000 1.000000 0.445339 0.826094
C59   C     C_R   0.000000 0.500000 0.554661 0.826093
C60   C     C_R   0.500000 0.000000 0.554661 0.826094
C61   C     C_R   0.500000 0.000000 0.945339 0.826093
C62   C     C_R   1.000000 0.500000 0.945339 0.826092
C63   C     C_R   0.500000 0.000000 0.054661 0.826092
C64   C     C_R   0.000000 0.500000 0.054661 0.826090
C65   C     C_R   0.037291 0.466239 0.190088 0.593507
C66   C     C_R   0.533755 0.037297 0.190088 0.593508
C67   C     C_R   0.962709 0.533762 0.190088 0.593507
C68   C     C_R   0.466246 0.962702 0.190088 0.593507
C69   C     C_R   0.037295 0.533757 0.809912 0.593507
C70   C     C_R   0.533756 0.962704 0.809912 0.593508
C71   C     C_R   0.962706 0.466242 0.809912 0.593507
C72   C     C_R   0.466244 0.037296 0.809912 0.593508
C73   C     C_R   0.537301 0.966250 0.690088 0.593509
C74   C     C_R   0.033750 0.537301 0.690088 0.593509
C75   C     C_R   0.462699 0.033750 0.690088 0.593509
C76   C     C_R   0.966250 0.462699 0.690088 0.593508
C77   C     C_R   0.537299 0.033752 0.309912 0.593507
C78   C     C_R   0.033745 0.462694 0.309912 0.593508
C79   C     C_R   0.462701 0.966248 0.309912 0.593507
C80   C     C_R   0.966255 0.537307 0.309912 0.593509
C81   C     C_R   0.964000 0.537256 0.219994 -0.070780
C82   C     C_R   0.462752 0.963992 0.219994 -0.070779
C83   C     C_R   0.036001 0.462745 0.219994 -0.070779
C84   C     C_R   0.537248 0.036007 0.219994 -0.070779
C85   C     C_R   0.963996 0.462749 0.780006 -0.070778
C86   C     C_R   0.462750 0.036006 0.780006 -0.070777
C87   C     C_R   0.036005 0.537250 0.780006 -0.070777
C88   C     C_R   0.537250 0.963994 0.780006 -0.070777
C89   C     C_R   0.463988 0.037244 0.719994 -0.070777
C90   C     C_R   0.962757 0.463987 0.719994 -0.070777
C91   C     C_R   0.536012 0.962756 0.719994 -0.070777
C92   C     C_R   0.037243 0.536012 0.719994 -0.070777
C93   C     C_R   0.463990 0.962754 0.280006 -0.070779
C94   C     C_R   0.962762 0.536019 0.280006 -0.070777
C95   C     C_R   0.536010 0.037246 0.280006 -0.070778
C96   C     C_R   0.037239 0.463983 0.280006 -0.070780
C97   C     C_R   0.000001 0.500001 0.235008 -0.090661
C98   C     C_R   0.500000 1.000000 0.235009 -0.090661
C99   C     C_R   0.000000 0.500000 0.764991 -0.090662
C100  C     C_R   0.500000 0.000000 0.764991 -0.090663
C101  C     C_R   0.500000 0.000000 0.735008 -0.090663
C102  C     C_R   0.000000 0.500000 0.735008 -0.090662
C103  C     C_R   0.500000 1.000000 0.264991 -0.090662
C104  C     C_R   0.000001 0.500001 0.264991 -0.090662
C105  C     C_R   0.929650 0.576042 0.235120 0.145174
C106  C     C_R   0.423974 0.929633 0.235120 0.145173
C107  C     C_R   0.070352 0.423960 0.235120 0.145175
C108  C     C_R   0.576026 0.070367 0.235120 0.145174
C109  C     C_R   0.929640 0.423969 0.764879 0.145173
C110  C     C_R   0.423970 0.070363 0.764879 0.145173
C111  C     C_R   0.070361 0.576031 0.764880 0.145172
C112  C     C_R   0.576029 0.929637 0.764880 0.145173
C113  C     C_R   0.429625 0.076018 0.735120 0.145173
C114  C     C_R   0.923984 0.429623 0.735120 0.145172
C115  C     C_R   0.570375 0.923982 0.735120 0.145172
C116  C     C_R   0.076016 0.570377 0.735121 0.145172
C117  C     C_R   0.429629 0.923978 0.264879 0.145174
C118  C     C_R   0.923994 0.570389 0.264879 0.145174
C119  C     C_R   0.570372 0.076021 0.264879 0.145175
C120  C     C_R   0.076008 0.429613 0.264879 0.145175
C121  C     C_R   0.047888 0.518741 0.369480 0.154627
C122  C     C_R   0.518749 0.952116 0.369480 0.154629
C123  C     C_R   0.952112 0.481259 0.369480 0.154627
C124  C     C_R   0.481251 0.047884 0.369480 0.154629
C125  C     C_R   0.047885 0.481251 0.630520 0.154628
C126  C     C_R   0.518747 0.047885 0.630520 0.154627
C127  C     C_R   0.952115 0.518749 0.630520 0.154628
C128  C     C_R   0.481252 0.952115 0.630520 0.154627
C129  C     C_R   0.547883 0.018753 0.869480 0.154628
C130  C     C_R   0.018755 0.452118 0.869480 0.154629
C131  C     C_R   0.452117 0.981247 0.869480 0.154628
C132  C     C_R   0.981245 0.547882 0.869480 0.154628
C133  C     C_R   0.547884 0.981248 0.130520 0.154629
C134  C     C_R   0.018759 0.547881 0.130520 0.154631
C135  C     C_R   0.452117 0.018752 0.130520 0.154629
C136  C     C_R   0.981241 0.452119 0.130520 0.154632
C137  C     C_R   0.047853 0.518147 0.399176 -0.264761
C138  C     C_R   0.518155 0.952150 0.399176 -0.264762
C139  C     C_R   0.952147 0.481853 0.399176 -0.264762
C140  C     C_R   0.481845 0.047850 0.399176 -0.264762
C141  C     C_R   0.047850 0.481846 0.600824 -0.264762
C142  C     C_R   0.518153 0.047850 0.600824 -0.264762
C143  C     C_R   0.952150 0.518154 0.600824 -0.264760
C144  C     C_R   0.481847 0.952150 0.600823 -0.264763
C145  C     C_R   0.547848 0.018159 0.899176 -0.264762
C146  C     C_R   0.018160 0.452152 0.899176 -0.264762
C147  C     C_R   0.452152 0.981842 0.899176 -0.264762
C148  C     C_R   0.981840 0.547847 0.899176 -0.264762
C149  C     C_R   0.547849 0.981843 0.100823 -0.264762
C150  C     C_R   0.018164 0.547847 0.100823 -0.264763
C151  C     C_R   0.452151 0.018157 0.100823 -0.264761
C152  C     C_R   0.981836 0.452154 0.100823 -0.264762
C153  C     C_R   1.000000 0.500000 0.414154 -0.077527
C154  C     C_R   0.500000 1.000000 0.414154 -0.077524
C155  C     C_R   0.000000 0.500000 0.585846 -0.077525
C156  C     C_R   0.500000 1.000000 0.585846 -0.077525
C157  C     C_R   0.500000 0.000000 0.914154 -0.077522
C158  C     C_R   0.000000 0.500000 0.914154 -0.077522
C159  C     C_R   0.500000 1.000000 0.085846 -0.077523
C160  C     C_R   0.000000 0.500000 0.085846 -0.077521
Cu1   Cu    Cu3+1 0.944110 0.500000 0.500000 0.969906
Cu2   Cu    Cu3+1 0.500000 0.944110 0.500000 0.969907
Cu3   Cu    Cu3+1 0.055890 0.500000 0.500000 0.969906
Cu4   Cu    Cu3+1 0.500000 0.055890 0.500000 0.969907
Cu5   Cu    Cu3+1 0.444110 0.000000 0.000000 0.969908
Cu6   Cu    Cu3+1 1.000000 0.444110 0.000000 0.969909
Cu7   Cu    Cu3+1 0.555890 0.000000 0.000000 0.969908
Cu8   Cu    Cu3+1 0.000000 0.555890 0.000000 0.969909
Cu9   Cu    Cu3+1 1.000000 1.000000 0.471960 0.991758
Cu10  Cu    Cu3+1 1.000000 1.000000 0.528040 0.991757
Cu11  Cu    Cu3+1 0.500000 0.500000 0.971960 0.991756
Cu12  Cu    Cu3+1 0.500000 0.500000 0.028040 0.991755
H1    H     H_    0.084968 0.532700 0.410466 0.166534
H2    H     H_    0.532714 0.915038 0.410466 0.166531
H3    H     H_    0.915032 0.467300 0.410466 0.166534
H4    H     H_    0.467286 0.084962 0.410466 0.166531
H5    H     H_    0.084962 0.467287 0.589534 0.166531
H6    H     H_    0.532711 0.084963 0.589534 0.166532
H7    H     H_    0.915038 0.532713 0.589534 0.166531
H8    H     H_    0.467289 0.915037 0.589534 0.166532
H9    H     H_    0.584959 0.032721 0.910466 0.166530
H10   H     H_    0.032724 0.415042 0.910466 0.166529
H11   H     H_    0.415041 0.967279 0.910466 0.166530
H12   H     H_    0.967276 0.584958 0.910466 0.166529
H13   H     H_    0.584960 0.967282 0.089534 0.166530
H14   H     H_    0.032730 0.584956 0.089534 0.166528
H15   H     H_    0.415040 0.032718 0.089534 0.166530
H16   H     H_    0.967270 0.415044 0.089534 0.166527
N1    N     N_R   0.000000 0.500000 0.175972 -0.445863
N2    N     N_R   0.500000 1.000000 0.175972 -0.445863
N3    N     N_R   0.000000 0.500000 0.824028 -0.445862
N4    N     N_R   0.500000 0.000000 0.824028 -0.445862
N5    N     N_R   0.500000 0.000000 0.675972 -0.445862
N6    N     N_R   0.000000 0.500000 0.675972 -0.445863
N7    N     N_R   0.500000 1.000000 0.324028 -0.445862
N8    N     N_R   0.000000 0.500001 0.324028 -0.445863
O1    O     O_R   0.952780 0.418580 0.499940 -0.575923
O2    O     O_R   0.581420 0.952780 0.499940 -0.575924
O3    O     O_R   0.047220 0.581420 0.499940 -0.575923
O4    O     O_R   0.418580 0.047220 0.499940 -0.575924
O5    O     O_R   0.952780 0.581420 0.500060 -0.575924
O6    O     O_R   0.581420 0.047220 0.500060 -0.575924
O7    O     O_R   0.047220 0.418580 0.500060 -0.575924
O8    O     O_R   0.418580 0.952780 0.500060 -0.575923
O9    O     O_R   0.452780 0.918580 0.999940 -0.575924
O10   O     O_R   0.081420 0.452780 0.999940 -0.575924
O11   O     O_R   0.547220 0.081420 0.999940 -0.575924
O12   O     O_R   0.918580 0.547220 0.999940 -0.575924
O13   O     O_R   0.452780 0.081420 0.000060 -0.575924
O14   O     O_R   0.081420 0.547220 0.000060 -0.575924
O15   O     O_R   0.547220 0.918580 0.000060 -0.575924
O16   O     O_R   0.918580 0.452780 0.000060 -0.575924
O17   O     O_R   0.952780 0.500010 0.458880 -0.586043
O18   O     O_R   0.499990 0.952780 0.458880 -0.586042
O19   O     O_R   0.047220 0.499990 0.458880 -0.586043
O20   O     O_R   0.500010 0.047220 0.458880 -0.586041
O21   O     O_R   0.952780 0.499990 0.541120 -0.586042
O22   O     O_R   0.499990 0.047220 0.541120 -0.586043
O23   O     O_R   0.047220 0.500010 0.541120 -0.586042
O24   O     O_R   0.500010 0.952780 0.541120 -0.586042
O25   O     O_R   0.452780 0.000010 0.958880 -0.586041
O26   O     O_R   0.999990 0.452780 0.958880 -0.586040
O27   O     O_R   0.547220 0.999990 0.958880 -0.586041
O28   O     O_R   0.000010 0.547220 0.958880 -0.586040
O29   O     O_R   0.452780 0.999990 0.041120 -0.586041
O30   O     O_R   0.999990 0.547220 0.041120 -0.586040
O31   O     O_R   0.547220 0.000010 0.041120 -0.586041
O32   O     O_R   0.000010 0.452780 0.041120 -0.586040
O33   O     O_2   0.076339 0.437425 0.175073 -0.510583
O34   O     O_2   0.562561 0.076350 0.175073 -0.510584
O35   O     O_2   0.923662 0.562575 0.175073 -0.510584
O36   O     O_2   0.437440 0.923650 0.175073 -0.510584
O37   O     O_2   0.076346 0.562566 0.824927 -0.510585
O38   O     O_2   0.562563 0.923653 0.824926 -0.510585
O39   O     O_2   0.923655 0.437434 0.824926 -0.510585
O40   O     O_2   0.437436 0.076347 0.824926 -0.510585
O41   O     O_2   0.576357 0.937448 0.675073 -0.510585
O42   O     O_2   0.062552 0.576357 0.675073 -0.510585
O43   O     O_2   0.423643 0.062552 0.675073 -0.510585
O44   O     O_2   0.937448 0.423643 0.675073 -0.510584
O45   O     O_2   0.576354 0.062556 0.324927 -0.510584
O46   O     O_2   0.062541 0.423634 0.324926 -0.510584
O47   O     O_2   0.423646 0.937444 0.324926 -0.510584
O48   O     O_2   0.937459 0.576367 0.324926 -0.510583
O49   O     O_R   0.080090 1.000000 0.475550 -0.569251
O50   O     O_R   0.000000 0.080090 0.475550 -0.569251
O51   O     O_R   0.919910 1.000000 0.475550 -0.569252
O52   O     O_R   1.000000 0.919910 0.475550 -0.569251
O53   O     O_R   0.080090 1.000000 0.524450 -0.569252
O54   O     O_R   1.000000 0.919910 0.524450 -0.569252
O55   O     O_R   0.919910 1.000000 0.524450 -0.569252
O56   O     O_R   1.000000 0.080090 0.524450 -0.569252
O57   O     O_R   0.580090 0.500000 0.975550 -0.569252
O58   O     O_R   0.500000 0.580090 0.975550 -0.569252
O59   O     O_R   0.419910 0.500000 0.975550 -0.569252
O60   O     O_R   0.500000 0.419910 0.975550 -0.569252
O61   O     O_R   0.580090 0.500000 0.024450 -0.569253
O62   O     O_R   0.500000 0.419910 0.024450 -0.569253
O63   O     O_R   0.419910 0.500000 0.024450 -0.569252
O64   O     O_R   0.500000 0.580090 0.024450 -0.569252
N9    N     N_3   0.903510 0.622811 0.220443 -0.512991
H17   H     H_    0.891930 0.654596 0.234641 0.216169
H18   H     H_    0.935031 0.642706 0.208527 0.240489
N10   N     N_3   0.377211 0.903482 0.220443 -0.512990
H19   H     H_    0.345430 0.891891 0.234641 0.216173
H20   H     H_    0.357308 0.934999 0.208529 0.240489
N11   N     N_3   0.096493 0.377191 0.220444 -0.512989
H21   H     H_    0.108077 0.345408 0.234642 0.216172
H22   H     H_    0.064971 0.357295 0.208529 0.240488
N12   N     N_3   0.622789 0.096518 0.220444 -0.512990
H23   H     H_    0.654570 0.108108 0.234642 0.216173
H24   H     H_    0.642693 0.065000 0.208529 0.240489
N13   N     N_3   0.903492 0.377203 0.779556 -0.512991
H25   H     H_    0.891906 0.345421 0.765358 0.216171
H26   H     H_    0.935011 0.357303 0.791471 0.240490
N14   N     N_3   0.377206 0.096511 0.779556 -0.512992
H27   H     H_    0.345425 0.108099 0.765358 0.216173
H28   H     H_    0.357305 0.064993 0.791471 0.240490
N15   N     N_3   0.096508 0.622796 0.779556 -0.512990
H29   H     H_    0.108094 0.654578 0.765358 0.216172
H30   H     H_    0.064989 0.642696 0.791472 0.240490
N16   N     N_3   0.622794 0.903489 0.779556 -0.512992
H31   H     H_    0.654575 0.891901 0.765358 0.216173
H32   H     H_    0.642695 0.935007 0.791471 0.240490
N17   N     N_3   0.403468 0.122778 0.720444 -0.512991
H33   H     H_    0.391873 0.154557 0.734642 0.216174
H34   H     H_    0.434983 0.142685 0.708529 0.240490
N18   N     N_3   0.877225 0.403465 0.720444 -0.512990
H35   H     H_    0.845447 0.391868 0.734642 0.216175
H36   H     H_    0.857316 0.434980 0.708529 0.240489
N19   N     N_3   0.596532 0.877223 0.720444 -0.512991
H37   H     H_    0.608127 0.845444 0.734642 0.216174
H38   H     H_    0.565017 0.857315 0.708529 0.240489
N20   N     N_3   0.122776 0.596535 0.720444 -0.512990
H39   H     H_    0.154554 0.608131 0.734642 0.216174
H40   H     H_    0.142684 0.565020 0.708529 0.240490
N21   N     N_3   0.403474 0.877217 0.279556 -0.512989
H41   H     H_    0.391882 0.845437 0.265358 0.216173
H42   H     H_    0.434991 0.857311 0.291471 0.240488
N22   N     N_3   0.877239 0.596554 0.279556 -0.512987
H43   H     H_    0.845463 0.608158 0.265358 0.216176
H44   H     H_    0.857324 0.565042 0.291470 0.240488
N23   N     N_3   0.596526 0.122783 0.279556 -0.512990
H45   H     H_    0.608119 0.154563 0.265358 0.216173
H46   H     H_    0.565010 0.142688 0.291471 0.240489
N24   N     N_3   0.122764 0.403449 0.279556 -0.512988
H47   H     H_    0.154541 0.391850 0.265358 0.216173
H48   H     H_    0.142676 0.434962 0.291471 0.240488
N25   N     N_3   0.096293 0.538874 0.354343 -0.577091
H49   H     H_    0.130986 0.514266 0.360297 0.236628
H50   H     H_    0.104131 0.580381 0.360801 0.223496
N26   N     N_3   0.538891 0.903714 0.354343 -0.577091
H51   H     H_    0.514289 0.869016 0.360297 0.236629
H52   H     H_    0.580399 0.895884 0.360801 0.223496
N27   N     N_3   0.903707 0.461127 0.354342 -0.577090
H53   H     H_    0.869014 0.485734 0.360296 0.236628
H54   H     H_    0.895870 0.419620 0.360801 0.223496
N28   N     N_3   0.461109 0.096285 0.354343 -0.577091
H55   H     H_    0.485711 0.130983 0.360297 0.236629
H56   H     H_    0.419601 0.104116 0.360801 0.223496
N29   N     N_3   0.096286 0.461111 0.645657 -0.577091
H57   H     H_    0.130984 0.485713 0.639703 0.236628
H58   H     H_    0.104117 0.419603 0.639199 0.223497
N30   N     N_3   0.538887 0.096287 0.645657 -0.577092
H59   H     H_    0.514284 0.130984 0.639703 0.236629
H60   H     H_    0.580395 0.104119 0.639199 0.223496
N31   N     N_3   0.903714 0.538889 0.645657 -0.577091
H61   H     H_    0.869016 0.514287 0.639703 0.236628
H62   H     H_    0.895883 0.580398 0.639199 0.223497
N32   N     N_3   0.461113 0.903713 0.645657 -0.577091
H63   H     H_    0.485716 0.869017 0.639703 0.236630
H64   H     H_    0.419605 0.895881 0.639199 0.223496
N33   N     N_3   0.596282 0.038899 0.854343 -0.577091
H65   H     H_    0.630982 0.014300 0.860297 0.236631
H66   H     H_    0.604109 0.080408 0.860801 0.223496
N34   N     N_3   0.038902 0.403719 0.854343 -0.577091
H67   H     H_    0.014305 0.369018 0.860297 0.236631
H68   H     H_    0.080411 0.395894 0.860801 0.223496
N35   N     N_3   0.403718 0.961101 0.854343 -0.577090
H69   H     H_    0.369018 0.985700 0.860297 0.236631
H70   H     H_    0.395891 0.919593 0.860801 0.223496
N36   N     N_3   0.961098 0.596280 0.854343 -0.577091
H71   H     H_    0.985695 0.630981 0.860297 0.236631
H72   H     H_    0.919589 0.604106 0.860801 0.223496
N37   N     N_3   0.596284 0.961105 0.145657 -0.577090
H73   H     H_    0.630983 0.985704 0.139703 0.236630
H74   H     H_    0.604112 0.919596 0.139199 0.223496
N38   N     N_3   0.038910 0.596279 0.145657 -0.577090
H75   H     H_    0.014315 0.630981 0.139703 0.236631
H76   H     H_    0.080420 0.604101 0.139198 0.223494
N39   N     N_3   0.403716 0.038895 0.145657 -0.577090
H77   H     H_    0.369017 0.014296 0.139703 0.236630
H78   H     H_    0.395888 0.080404 0.139199 0.223496
N40   N     N_3   0.961090 0.403722 0.145657 -0.577088
H79   H     H_    0.985685 0.369019 0.139703 0.236632
H80   H     H_    0.919581 0.395900 0.139199 0.223494

loop_
_geom_bond_atom_site_label_1
_geom_bond_atom_site_label_2
_ccdc_geom_bond_type
C74   N6    A    
Cu1   O21   S    
C130  C146  A    
C135  N39   S    
N19   H37   S    
C34   C42   T    
C69   N3    A    
Cu5   O25   S    
N23   H46   S    
C14   C132  A    
N33   H65   S    
Cu3   O7    S    
N16   H31   S    
C86   C110  A    
C10   C124  A    
C12   C126  A    
C126  N30   S    
C54   O64   A    
C30   C38   S    
C74   C92   A    
Cu6   O16   S    
C133  N37   S    
C78   C96   A    
N30   H59   S    
C2    O6    A    
C46   C55   S    
C138  H2    S    
C9    C121  A    
Cu8   O12   S    
C3    C19   S    
C79   O47   S    
C129  N33   S    
C129  C145  A    
C92   C102  A    
C138  C154  A    
C67   O35   S    
C82   C98   A    
C52   O52   A    
Cu1   Cu3   S    
Cu2   Cu4   S    
C80   N8    A    
C89   C113  A    
C132  N36   S    
N32   H63   S    
C70   N4    A    
C59   O21   A    
N36   H71   S    
C63   O31   A    
C20   C28   T    
C27   C35   S    
C21   C29   T    
C72   O40   S    
Cu10  O53   S    
Cu2   O8    S    
C111  N15   S    
C51   O51   A    
C24   C32   T    
C137  H1    S    
C145  C157  A    
N23   H45   S    
C140  H4    S    
C106  N10   S    
N24   H47   S    
C54   O58   A    
C137  C153  A    
C112  N16   S    
C128  C144  A    
N32   H64   S    
C58   O18   A    
C65   N1    A    
C96   C104  A    
N12   H24   S    
C105  C118  A    
C36   C44   T    
C37   C45   T    
C107  C120  A    
C95   C119  A    
C50   O56   A    
N22   H43   S    
C39   C47   T    
C14   C130  A    
C40   C48   T    
C89   C101  A    
N34   H67   S    
C10   C122  A    
C12   C128  A    
C125  N29   S    
Cu2   O2    S    
C118  N22   S    
C17   C25   T    
C77   N7    A    
N17   H34   S    
C114  N18   S    
N38   H75   S    
C9    C123  A    
C55   O59   A    
C90   C114  A    
C16   N1    S    
C4    C20   S    
C5    C21   S    
N29   H57   S    
C142  C156  A    
Cu12  O61   S    
C50   O50   A    
Cu5   O9    S    
N18   H36   S    
Cu3   O23   S    
C74   O42   S    
C117  N21   S    
N39   H77   S    
C63   C159  S    
C16   C134  A    
C93   C103  A    
C63   O29   A    
C134  N38   S    
N19   H38   S    
Cu8   O30   S    
N9    H17   S    
C43   C52   S    
C145  H9    S    
C79   N7    A    
N26   H51   S    
C121  C137  A    
C69   O37   S    
C90   C102  A    
N28   H56   S    
C144  H8    S    
C125  C141  A    
N10   H19   S    
Cu11  O60   S    
C131  C147  A    
C71   O39   S    
Cu9   O50   S    
C35   C43   T    
C113  N17   S    
N15   H30   S    
Cu3   O3    S    
Cu5   Cu7   S    
Cu6   Cu8   S    
N21   H42   S    
C93   C117  A    
C91   C101  A    
C95   C103  A    
N25   H50   S    
C48   C53   S    
C81   C105  A    
C7    O11   A    
N31   H62   S    
C136  N40   S    
C23   C31   T    
C151  C159  A    
C144  C156  A    
C11   C127  A    
C85   C99   A    
C60   O22   A    
C143  C155  A    
Cu5   O29   S    
Cu10  O56   S    
C78   N8    A    
Cu12  O63   S    
C76   N6    A    
C109  C114  A    
N10   H20   S    
C57   O17   A    
C67   C81   A    
C56   O60   A    
C123  N27   S    
Cu11  O59   S    
C16   C136  A    
Cu2   O18   S    
C62   O28   A    
C22   C30   T    
C1    O1    A    
C150  H14   S    
N11   H21   S    
C146  C158  A    
C1    C17   S    
C65   O33   S    
Cu9   O49   S    
C108  N12   S    
C94   C118  A    
C142  H6    S    
C52   O54   A    
C7    C23   S    
C66   N2    A    
Cu11  O58   S    
C100  C101  A    
C8    C24   S    
C55   O63   A    
C62   O26   A    
Cu9   O52   S    
C38   C46   T    
C75   C89   A    
C94   C104  A    
C4    O4    A    
N14   H27   S    
C121  N25   S    
N40   H79   S    
C13   C129  A    
C71   N3    A    
C8    O16   A    
C72   N4    A    
C49   O49   A    
C68   O36   S    
C25   C33   S    
C47   C56   S    
C149  H13   S    
C73   N5    A    
C12   N5    S    
C75   O43   S    
C18   C26   T    
C152  H16   S    
Cu6   O26   S    
Cu4   O20   S    
C151  H15   S    
C116  N20   S    
C13   N4    S    
C150  C160  A    
C141  H5    S    
C11   C125  A    
C85   C109  A    
C60   O24   A    
N20   H39   S    
N36   H72   S    
C87   C111  A    
C139  C153  A    
C98   C103  A    
C6    C22   S    
Cu10  O54   S    
N21   H41   S    
C58   C154  S    
C136  C152  A    
Cu3   O19   S    
C57   O19   A    
N24   H48   S    
N15   H29   S    
C62   C158  S    
C111  C116  A    
N37   H74   S    
C86   C100  A    
C69   C87   A    
C49   O53   A    
N27   H53   S    
C128  N32   S    
C108  C119  A    
C53   O57   A    
C7    O13   A    
N22   H44   S    
N33   H66   S    
C5    O15   A    
C53   O61   A    
C146  H10   S    
Cu8   O14   S    
C122  C138  A    
N34   H68   S    
C141  C155  A    
C57   C153  S    
C126  C142  A    
C127  N31   S    
C60   C156  S    
N17   H33   S    
C61   C157  S    
Cu7   O31   S    
N35   H69   S    
C68   N2    A    
C64   C160  S    
N38   H76   S    
C13   C131  A    
Cu7   O27   S    
C88   C100  A    
C6    O14   A    
C106  C117  A    
C115  N19   S    
C3    O5    A    
C77   O45   S    
Cu12  O62   S    
C1    O7    A    
C41   C50   S    
Cu4   O22   S    
N16   H32   S    
C124  C140  A    
C72   C86   A    
N39   H78   S    
Cu1   O1    S    
C76   O44   S    
C33   C41   T    
C68   C82   A    
N31   H61   S    
N11   H22   S    
Cu5   O13   S    
C135  C151  A    
C84   C108  A    
N26   H52   S    
C61   O25   A    
C97   C104  A    
C65   C83   A    
C88   C112  A    
C99   C102  A    
C130  N34   S    
C28   C36   S    
Cu6   O32   S    
C83   C97   A    
C29   C37   S    
Cu2   O24   S    
C120  N24   S    
N12   H23   S    
Cu6   O10   S    
C119  N23   S    
C109  N13   S    
Cu4   O4    S    
C76   C90   A    
C44   C49   S    
Cu11  Cu12  S    
C152  C160  A    
C123  C139  A    
C2    C18   S    
Cu9   Cu10  S    
C139  H3    S    
C11   N6    S    
C70   C88   A    
C64   O30   A    
C9    N8    S    
N25   H49   S    
C78   O46   S    
Cu1   O5    S    
C79   C93   A    
C4    O8    A    
C15   C135  A    
C134  C150  A    
C70   O38   S    
C8    O12   A    
N13   H26   S    
C71   C85   A    
C26   C34   S    
C83   C107  A    
N29   H58   S    
C3    O3    A    
Cu12  O64   S    
C51   O55   A    
C42   C51   S    
C82   C106  A    
Cu8   O28   S    
C122  N26   S    
C87   C99   A    
N27   H54   S    
C6    O10   A    
C132  C148  A    
C133  C149  A    
C73   C91   A    
N9    H18   S    
C59   C155  S    
C127  C143  A    
C5    O9    A    
C77   C95   A    
C80   O48   S    
Cu7   O11   S    
C61   O27   A    
C73   O41   S    
N28   H55   S    
C92   C116  A    
C148  H12   S    
Cu11  O57   S    
N13   H25   S    
C148  C158  A    
Cu9   O51   S    
C149  C159  A    
C110  C113  A    
Cu4   O6    S    
C110  N14   S    
C14   N3    S    
C75   N5    A    
N30   H60   S    
N35   H70   S    
C15   N2    S    
N14   H28   S    
C45   C54   S    
N40   H80   S    
C107  N11   S    
C147  C157  A    
C64   O32   A    
C19   C27   T    
C147  H11   S    
Cu1   O17   S    
C91   C115  A    
C2    O2    A    
C96   C120  A    
C56   O62   A    
C67   N1    A    
C15   C133  A    
C66   O34   S    
C84   C98   A    
N18   H35   S    
C124  N28   S    
Cu7   O15   S    
C59   O23   A    
C10   N7    S    
N20   H40   S    
C81   C97   A    
C31   C39   S    
Cu10  O55   S    
C32   C40   S    
C131  N35   S    
C66   C84   A    
C105  N9    S    
C143  H7    S    
N37   H73   S    
C80   C94   A    
C112  C115  A    
C140  C154  A    
C58   O20   A    
