data_mof_unit_pretest_103.cif
_audit_creation_date              2012-12-10T18:57:05-0500
_audit_creation_method            fapswitch 2.2
_symmetry_space_group_name_H-M    P1
_symmetry_Int_Tables_number       1
_space_group_crystal_system       triclinic
_cell_length_a                    10.735466
_cell_length_b                    9.913585
_cell_length_c                    10.799769
_cell_angle_alpha                 90.004124
_cell_angle_beta                  93.275999
_cell_angle_gamma                 89.871955
_cell_volume                      1147.50538013

loop_
_atom_site_label
_atom_site_type_symbol
_atom_type_description
_atom_site_fract_x
_atom_site_fract_y
_atom_site_fract_z
_atom_type_partial_charge
C1    C     C_R   0.260750 0.500577 0.508587 0.921006
C2    C     C_R   0.739553 0.500250 0.493225 0.921535
C3    C     C_R   0.578245 0.071668 0.581459 -0.030953
C4    C     C_R   0.414678 0.072127 0.425946 -0.038685
C5    C     C_R   0.581640 0.927929 0.577535 0.380367
C6    C     C_R   0.415098 0.928204 0.425935 0.373329
C7    C     C_R   0.499455 0.499895 0.260535 0.882946
C8    C     C_R   0.499741 0.499859 0.739402 0.876717
C9    C     C_R   0.500962 0.617131 0.061992 0.024195
C10   C     C_R   0.499850 0.617020 0.937833 0.010286
C11   C     C_R   0.498761 0.498348 0.129153 -0.083806
C12   C     C_R   0.498235 0.498239 0.870616 -0.090817
C13   C     C_R   0.495629 0.375051 0.064183 -0.183283
C14   C     C_R   0.495186 0.375032 0.935319 -0.154734
C15   C     C_3   0.502570 0.767251 0.928332 -0.282877
C16   C     C_3   0.503094 0.767563 0.070813 -0.311778
C17   C     C_R   0.064628 0.379754 0.514480 -0.164620
C18   C     C_R   0.936820 0.379522 0.505850 -0.195254
C19   C     C_R   0.872527 0.501555 0.489248 -0.179970
C20   C     C_R   0.128229 0.502599 0.517715 -0.196329
C21   C     C_R   0.937266 0.624534 0.482382 0.270927
C22   C     C_R   0.062723 0.625807 0.516780 0.276881
H1    H     H_    0.493525 0.279075 0.111950 0.184433
H2    H     H_    0.492315 0.279125 0.887329 0.218427
H3    H     H_    0.589674 0.806464 0.892140 0.233487
H4    H     H_    0.417268 0.810882 0.106411 0.215091
H5    H     H_    0.113157 0.283938 0.520469 0.233230
H6    H     H_    0.888946 0.283664 0.509993 0.199802
N1    N     N_R   0.500000 0.857200 0.500000 -0.141931
N2    N     N_R   0.500000 0.142810 0.500000 -0.193070
O1    O     O_R   0.316770 0.614620 0.499990 -0.553607
O2    O     O_R   0.683230 0.614620 0.500010 -0.552240
O3    O     O_R   0.316800 0.385290 0.500000 -0.642143
O4    O     O_R   0.683200 0.385290 0.500000 -0.663939
O5    O     O_R   0.500000 0.614690 0.316780 -0.583251
O6    O     O_R   0.500000 0.614690 0.683220 -0.587282
O7    O     O_R   0.500020 0.385360 0.316780 -0.658979
O8    O     O_R   0.499980 0.385360 0.683220 -0.645862
Zn1   Zn    Zn3+2 0.500000 0.653120 0.500000 1.082075
Zn2   Zn    Zn3+2 0.500000 0.346880 0.500000 0.958645
C23   C     C_2   0.384686 0.823852 0.866679 0.548904
H7    H     H_    0.294423 0.784685 0.889471 0.082907
O9    O     O_2   0.389641 0.914724 0.790986 -0.530350
C24   C     C_2   0.622241 0.819954 0.132684 0.565519
H8    H     H_    0.711580 0.778459 0.109234 0.091507
O10   O     O_2   0.619249 0.909964 0.209514 -0.548074
Br1   Br    Br    0.866192 0.787028 0.407803 -0.350597
Br2   Br    Br    0.132509 0.792798 0.582488 -0.340892
C25   C     C_2   0.652691 0.143836 0.680027 0.520842
H9    H     H_    0.702610 0.234554 0.661044 0.094954
O11   O     O_2   0.656583 0.103280 0.786924 -0.550320
C26   C     C_2   0.317291 0.145696 0.350851 0.519303
H10   H     H_    0.340646 0.228494 0.292204 0.084361
O12   O     O_2   0.207586 0.114892 0.355079 -0.520281
Br3   Br    Br    0.706688 0.833027 0.678242 -0.399336
Br4   Br    Br    0.297873 0.832700 0.317186 -0.396412

loop_
_geom_bond_atom_site_label_1
_geom_bond_atom_site_label_2
_ccdc_geom_bond_type
C3    N2    A    
C22   Br2   S    
C11   C13   A    
C23   H7    S    
C16   C24   S    
O5    Zn1   S    
C12   C14   A    
C8    C12   S    
N1    Zn1   S    
C25   O11   D    
C17   C18   A    
C3    C25   S    
C1    O3    A    
C21   C22   A    
C26   H10   S    
O8    Zn2   S    
C23   O9    D    
C2    O4    A    
C8    O8    A    
C4    C26   S    
O4    Zn2   S    
C10   C12   A    
C9    C10   A    
C4    C6    A    
C19   C21   A    
C9    C16   S    
C26   O12   D    
C7    C11   S    
O7    Zn2   S    
C5    N1    A    
C10   C15   S    
C9    C11   A    
C16   H4    S    
C15   H3    S    
O3    Zn2   S    
C20   C22   A    
C15   C23   S    
N2    Zn2   S    
C15   C16   S    
C17   H5    S    
C3    C5    A    
C1    O1    A    
C6    N1    A    
C18   H6    S    
C24   H8    S    
C13   H1    S    
C2    O2    A    
C25   H9    S    
C8    O6    A    
O2    Zn1   S    
C14   H2    S    
O1    Zn1   S    
C18   C19   A    
C1    C20   S    
C24   O10   D    
C21   Br1   S    
C2    C19   S    
C13   C14   A    
C7    O5    A    
C17   C20   A    
C5    Br3   S    
O6    Zn1   S    
C4    N2    A    
C6    Br4   S    
C7    O7    A    
