data_mof_unit_pretest_1329.cif
_audit_creation_date              2012-12-11T15:49:04-0500
_audit_creation_method            fapswitch 2.2
_symmetry_space_group_name_H-M    P1
_symmetry_Int_Tables_number       1
_space_group_crystal_system       triclinic
_cell_length_a                    21.633705
_cell_length_b                    7.163035
_cell_length_c                    14.936699
_cell_angle_alpha                 90.465365
_cell_angle_beta                  106.629434
_cell_angle_gamma                 90.178275
_cell_volume                      2217.71858888

loop_
_atom_site_label
_atom_site_type_symbol
_atom_type_description
_atom_site_fract_x
_atom_site_fract_y
_atom_site_fract_z
_atom_type_partial_charge
O1    O     O_R   0.335860 0.638190 0.002110 -0.542291
O2    O     O_R   0.664140 0.361810 0.997890 -0.537209
O3    O     O_R   0.164140 0.138190 0.997890 -0.528129
O4    O     O_R   0.835860 0.861810 0.002110 -0.548435
O5    O     O_R   0.217530 0.305920 0.861960 -0.511154
O6    O     O_R   0.782470 0.694080 0.138040 -0.537648
O7    O     O_R   0.282470 0.805920 0.138040 -0.497436
O8    O     O_R   0.717530 0.194080 0.861960 -0.490002
C1    C     C_R   0.203916 0.475665 0.826045 0.713458
C2    C     C_R   0.795179 0.524161 0.174486 0.735965
C3    C     C_R   0.295202 0.977669 0.174723 0.681716
C4    C     C_R   0.704782 0.022351 0.825315 0.718911
O9    O     O_R   0.338690 0.308320 0.993240 -0.552662
O10   O     O_R   0.661310 0.691680 0.006760 -0.557221
O11   O     O_R   0.161310 0.808320 0.006760 -0.560404
O12   O     O_R   0.838690 0.191680 0.993240 -0.531331
O13   O     O_R   0.286170 0.140430 0.130100 -0.528792
O14   O     O_R   0.713830 0.859570 0.869900 -0.538900
O15   O     O_R   0.213830 0.640430 0.869900 -0.549156
O16   O     O_R   0.786170 0.359570 0.130100 -0.496711
C5    C     C_R   0.364977 0.477431 0.997610 0.720920
C6    C     C_R   0.634979 0.522580 0.002160 0.706001
C7    C     C_R   0.135011 0.977063 0.002357 0.718947
C8    C     C_R   0.864984 0.022853 0.997631 0.734286
O17   O     O_3   0.232630 0.472410 0.044750 -0.369876
O18   O     O_3   0.767370 0.527590 0.955250 -0.370416
O19   O     O_3   0.267370 0.972410 0.955250 -0.386426
O20   O     O_3   0.732630 0.027590 0.044750 -0.381004
V1    V     V_3+5 0.253220 0.196620 0.991700 1.519212
V2    V     V_3+5 0.746780 0.803380 0.008300 1.524158
V3    V     V_3+5 0.246780 0.696620 0.008300 1.507231
V4    V     V_3+5 0.753220 0.303380 0.991700 1.629373
C9    C     C_R   0.030699 0.826492 0.008829 -0.129500
C10   C     C_R   0.969146 0.172961 0.990339 -0.124351
C11   C     C_R   0.469753 0.325968 0.995676 -0.154003
C12   C     C_R   0.530123 0.674048 0.003646 -0.153572
H1    H     H_    0.053247 0.690551 0.016130 0.122931
H2    H     H_    0.946649 0.308996 0.983252 0.143316
H3    H     H_    0.447711 0.189272 0.992797 0.111932
H4    H     H_    0.552172 0.810743 0.006577 0.116120
C13   C     C_R   0.965724 0.837986 0.007086 -0.115686
C14   C     C_R   0.034219 0.161548 0.992753 -0.062727
C15   C     C_R   0.534722 0.337137 0.997292 -0.102048
C16   C     C_R   0.465135 0.662883 0.001905 -0.123813
H5    H     H_    0.940542 0.710050 0.013330 0.135613
H6    H     H_    0.059589 0.289561 0.987534 0.143271
H7    H     H_    0.560414 0.208412 0.995242 0.120250
H8    H     H_    0.439428 0.791620 0.003853 0.109586
C17   C     C_R   0.933945 0.011470 0.997889 -0.059789
C18   C     C_R   0.065957 0.988113 0.001660 -0.046350
C19   C     C_R   0.565931 0.511353 0.001423 -0.022553
C20   C     C_R   0.433962 0.488661 0.997991 -0.018924
C21   C     C_R   0.678111 0.004290 0.722817 -0.139407
C22   C     C_R   0.321946 0.995835 0.277268 -0.120433
C23   C     C_R   0.821726 0.524717 0.276888 -0.125553
C24   C     C_R   0.173880 0.482485 0.724949 -0.115734
C25   C     C_R   0.678239 0.828699 0.583545 -0.104356
C26   C     C_R   0.321676 0.171542 0.416522 -0.098278
C27   C     C_R   0.816083 0.663713 0.422828 -0.118009
C28   C     C_R   0.187412 0.514672 0.570564 -0.146650
C29   C     C_R   0.706569 0.873092 0.677022 -0.149298
C30   C     C_R   0.293257 0.126335 0.323128 -0.128823
C31   C     C_R   0.788157 0.626042 0.328525 -0.192859
C32   C     C_R   0.213754 0.507529 0.666994 -0.223749
C33   C     C_R   0.620071 0.092389 0.672723 0.357318
C34   C     C_R   0.380324 0.909215 0.327270 0.256383
C35   C     C_R   0.884391 0.457861 0.321463 0.366643
C36   C     C_R   0.106133 0.468698 0.686234 0.324649
C37   C     C_R   0.583414 0.010256 0.586285 -0.044530
C38   C     C_R   0.416966 0.992537 0.413490 0.000241
C39   C     C_R   0.917393 0.530406 0.411701 -0.024812
C40   C     C_R   0.079021 0.510361 0.589858 -0.016721
C41   C     C_R   0.616450 0.893709 0.538207 0.069881
C42   C     C_R   0.383779 0.108405 0.461633 0.109682
C43   C     C_R   0.880740 0.619607 0.464620 0.086023
C44   C     C_R   0.120405 0.514843 0.531372 0.095459
C45   C     C_R   0.515482 0.034509 0.546289 0.085935
C46   C     C_R   0.484946 0.969039 0.453437 0.085018
C47   C     C_R   0.985506 0.523624 0.450866 0.104500
C48   C     C_R   0.012480 0.547310 0.548635 0.074735
C49   C     C_R   0.524036 0.892872 0.401700 -0.061734
C50   C     C_R   0.476415 0.110911 0.598009 -0.083429
C51   C     C_R   0.974330 0.630829 0.599856 -0.030825
C52   C     C_R   0.027740 0.520509 0.394504 -0.058569
C53   C     C_R   0.587588 0.844578 0.445035 -0.129251
C54   C     C_R   0.412746 0.158361 0.554708 -0.142194
C55   C     C_R   0.909694 0.670138 0.557818 -0.131825
C56   C     C_R   0.094308 0.522137 0.434337 -0.173860
H9    H     H_    0.614460 0.769583 0.405197 0.124078
H10   H     H_    0.385840 0.233197 0.594544 0.119959
H11   H     H_    0.882226 0.739931 0.598473 0.134022
H12   H     H_    0.125453 0.526318 0.388994 0.123444
H13   H     H_    0.247946 0.191165 0.286645 0.131886
H14   H     H_    0.751630 0.807085 0.713612 0.146381
H15   H     H_    0.265669 0.515341 0.696475 0.123041
H16   H     H_    0.739934 0.676630 0.295300 0.126338
H17   H     H_    0.702875 0.734190 0.548426 0.127135
H18   H     H_    0.296753 0.264981 0.451787 0.118941
H19   H     H_    0.788290 0.737515 0.461659 0.117929
H20   H     H_    0.219444 0.524446 0.526689 0.128209
H21   H     H_    0.505555 0.865110 0.327836 0.154757
H22   H     H_    0.494976 0.139423 0.671837 0.173032
H23   H     H_    0.995215 0.676393 0.671309 0.186773
H24   H     H_    0.009668 0.529049 0.319348 0.158326
S1    S     S_3+6 0.394221 0.672798 0.298874 0.007966
O21   O     O_2   0.440012 0.578758 0.380934 -0.304957
O22   O     O_2   0.331643 0.565903 0.274354 -0.312008
O23   O     O_3   0.424837 0.663908 0.207277 -0.498557
H25   H     H_    0.418100 0.789613 0.179194 0.286874
S2    S     S_3+6 0.606954 0.328784 0.701261 -0.028754
O24   O     O_2   0.581711 0.333750 0.785111 -0.377055
O25   O     O_2   0.669770 0.434365 0.723642 -0.329499
O26   O     O_3   0.554625 0.435837 0.611090 -0.488902
H26   H     H_    0.552301 0.566044 0.632726 0.364653
S3    S     S_3+6 0.059134 0.359773 0.752688 -0.017275
O27   O     O_2   0.995943 0.287245 0.690733 -0.304695
O28   O     O_2   0.094738 0.196079 0.804881 -0.337525
O29   O     O_3   0.044690 0.514265 0.829588 -0.521234
H27   H     H_    0.086717 0.532599 0.877367 0.314728
S4    S     S_3+6 0.913829 0.258736 0.273826 -0.027802
O30   O     O_2   0.968442 0.168060 0.345803 -0.343159
O31   O     O_2   0.860914 0.115957 0.241382 -0.313390
O32   O     O_3   0.938748 0.325686 0.182115 -0.546050
H28   H     H_    0.977367 0.249272 0.185203 0.342147

loop_
_geom_bond_atom_site_label_1
_geom_bond_atom_site_label_2
_ccdc_geom_bond_type
O17   V3    S    
C51   C55   A    
C26   C30   A    
C55   H11   S    
O19   V1    S    
C27   H19   S    
C37   C45   A    
C26   H18   S    
C40   C44   A    
O15   V3    S    
C39   C47   A    
O4    V2    S    
O32   H28   S    
C49   H21   S    
C45   C46   A    
O1    C5    A    
S1    O22   D    
C51   H23   S    
O9    V1    S    
C47   C52   A    
O4    C8    A    
C38   C46   A    
S3    O27   D    
O1    V3    S    
O13   V1    S    
O23   H25   S    
O2    V4    S    
C14   H6    S    
C25   C41   A    
O3    V1    S    
O3    C7    A    
C38   C42   A    
O29   H27   S    
C21   C29   A    
C1    O15   A    
C56   H12   S    
C2    O16   A    
C10   C14   A    
S3    O28   D    
C23   C31   A    
O2    C6    A    
C24   C32   A    
C37   C41   A    
O14   V2    S    
C21   C33   A    
C35   S4    S    
C44   C56   A    
C4    C21   S    
S4    O32   S    
C36   C40   A    
C16   C20   A    
O11   C7    A    
O12   C8    A    
C10   H2    S    
O10   V2    S    
C48   C51   A    
C13   C17   A    
S4    O31   D    
O5    V1    S    
S1    O23   S    
O7    V3    S    
O8    V4    S    
C12   H4    S    
C54   H10   S    
C53   H9    S    
O18   V4    S    
C7    C18   S    
C22   C30   A    
C9    C18   A    
C50   C54   A    
C31   H16   S    
C28   C44   A    
C9    H1    S    
S2    O24   D    
O7    C3    A    
O5    C1    A    
O8    C4    A    
S3    O29   S    
C25   H17   S    
C50   H22   S    
O9    C5    A    
C1    C24   S    
C42   C54   A    
C25   C29   A    
C2    C23   S    
C3    C22   S    
S2    O26   S    
C41   C53   A    
C12   C19   A    
C14   C18   A    
C43   C55   A    
O6    V2    S    
C52   H24   S    
C12   C16   A    
C34   S1    S    
C27   C43   A    
C11   C15   A    
S4    O30   D    
C26   C42   A    
O26   H26   S    
O16   V4    S    
C8    C17   S    
C3    O13   A    
C10   C17   A    
C29   H14   S    
C52   C56   A    
C32   H15   S    
C28   H20   S    
O6    C2    A    
C23   C35   A    
O11   V3    S    
C22   C34   A    
O12   V4    S    
S1    O21   D    
C27   C31   A    
C28   C32   A    
C9    C13   A    
O10   C6    A    
O20   V2    S    
C40   C48   A    
C24   C36   A    
C39   C43   A    
C46   C49   A    
C15   C19   A    
C34   C38   A    
C45   C50   A    
C33   C37   A    
C11   H3    S    
C35   C39   A    
S2    O25   D    
C33   S2    S    
C36   S3    S    
C47   C48   A    
C30   H13   S    
C4    O14   A    
C11   C20   A    
C13   H5    S    
C15   H7    S    
C5    C20   S    
C49   C53   A    
C16   H8    S    
C6    C19   S    
