data_mof_unit_pretest_1784.cif
_audit_creation_date              2012-12-11T16:00:47-0500
_audit_creation_method            fapswitch 2.2
_symmetry_space_group_name_H-M    P1
_symmetry_Int_Tables_number       1
_space_group_crystal_system       triclinic
_cell_length_a                    6.949459
_cell_length_b                    17.266795
_cell_length_c                    18.586466
_cell_angle_alpha                 107.259415
_cell_angle_beta                  90.344642
_cell_angle_gamma                 90.690094
_cell_volume                      2129.59211086

loop_
_atom_site_label
_atom_site_type_symbol
_atom_type_description
_atom_site_fract_x
_atom_site_fract_y
_atom_site_fract_z
_atom_type_partial_charge
O1    O     O_R   0.505810 0.442350 0.559500 -0.522003
O2    O     O_R   0.167990 0.405060 0.411070 -0.541209
O3    O     O_R   0.005550 0.557650 0.440500 -0.525229
C1    C     C_R   0.337338 0.381594 0.382827 0.715970
O4    O     O_R   0.175580 0.432840 0.557140 -0.531673
O5    O     O_R   0.013190 0.585620 0.587600 -0.538319
C2    C     C_R   0.344534 0.415934 0.580638 0.720940
O6    O     O_R   0.498170 0.414380 0.412400 -0.530966
O7    O     O_3   0.341790 0.550090 0.509830 -0.351269
V1    V     V_3+5 0.063870 0.490710 0.498180 1.480173
O8    O     O_R   0.683930 0.594940 0.588930 -0.518896
C3    C     C_R   0.854398 0.618026 0.616989 0.793113
O9    O     O_R   0.676340 0.567160 0.442860 -0.515041
C4    C     C_R   0.845243 0.584104 0.419404 0.753860
V2    V     V_3+5 0.564820 0.509290 0.501820 1.536212
O10   O     O_3   0.836770 0.449910 0.490170 -0.374060
C5    C     C_1   0.856356 0.636092 0.367359 -0.133512
C6    C     C_1   0.867555 0.678625 0.323777 0.054536
C7    C     C_1   0.881932 0.728778 0.271876 0.035105
C8    C     C_1   0.894306 0.771022 0.228067 0.024311
C9    C     C_1   0.908744 0.821199 0.176183 0.017069
C10   C     C_1   0.920053 0.863769 0.132631 -0.198665
C11   C     C_3   0.713252 0.781053 0.770924 -0.193729
C12   C     C_3   0.811949 0.775775 0.695232 0.255917
H1    H     H_    0.568517 0.806199 0.787989 0.183984
C13   C     C_3   0.871136 0.688240 0.687397 -0.175521
C14   C     C_3   0.774737 0.693129 0.762742 0.277786
C15   C     C_3   0.965745 0.724207 0.805339 -0.176017
C16   C     C_3   0.063418 0.719247 0.729123 -0.199546
C17   C     C_3   0.002458 0.807262 0.737243 0.285957
C18   C     C_3   0.905781 0.811869 0.812505 -0.175250
C19   C     C_3   0.483278 0.236902 0.307999 -0.180090
C20   C     C_3   0.324820 0.180640 0.259922 -0.129869
C21   C     C_3   0.420402 0.189339 0.187799 -0.061001
C22   C     C_3   0.578849 0.244776 0.235109 -0.142846
C23   C     C_3   0.451779 0.318906 0.239751 0.302897
C24   C     C_3   0.293798 0.263405 0.191459 -0.136860
C25   C     C_3   0.198650 0.255481 0.264420 -0.153441
C26   C     C_3   0.356684 0.311052 0.311901 -0.063511
H2    H     H_    0.734388 0.240624 0.222031 0.124265
C27   C     C_1   0.355010 0.363901 0.632688 -0.174364
C28   C     C_1   0.366682 0.321342 0.676238 0.032718
C29   C     C_1   0.382093 0.271149 0.728086 0.029996
C30   C     C_1   0.395407 0.228885 0.771845 0.034233
C31   C     C_1   0.410792 0.178698 0.823699 0.043869
C32   C     C_1   0.422406 0.136148 0.867257 -0.164706
O11   O     O_R   0.278780 0.085730 0.087540 -0.539703
O12   O     O_R   0.601620 0.067180 0.942850 -0.524926
O13   O     O_R   0.763750 0.914350 0.912410 -0.533819
C33   C     C_R   0.432735 0.084122 0.919316 0.744056
O14   O     O_R   0.608970 0.094960 0.088920 -0.539301
O15   O     O_R   0.771150 0.942330 0.059520 -0.524843
C34   C     C_R   0.439630 0.118568 0.117079 0.686030
O16   O     O_R   0.271380 0.057750 0.940430 -0.517135
O17   O     O_3   0.435070 0.949970 0.990140 -0.358385
V3    V     V_3+5 0.713090 0.009280 0.001830 1.456185
O18   O     O_R   0.100340 0.932730 0.057200 -0.528622
C35   C     C_R   0.931362 0.915808 0.080621 0.705103
O19   O     O_R   0.092990 0.904950 0.911140 -0.526288
C36   C     C_R   0.922537 0.881926 0.883019 0.778658
V4    V     V_3+5 0.212100 0.990570 0.998260 1.467866
O20   O     O_3   0.940260 0.050030 0.009860 -0.364619
Br1   Br    Br    0.698868 0.812639 0.615916 -0.444176
Br2   Br    Br    0.544014 0.418983 0.224160 -0.560927
H3    H     H_    0.217274 0.274840 0.143061 0.139051
H4    H     H_    0.043078 0.259943 0.277423 0.123363
Br3   Br    Br    0.607131 0.610894 0.781381 -0.559609
H5    H     H_    0.028678 0.703035 0.851094 0.168549
H6    H     H_    0.208073 0.694184 0.711798 0.189282
Br4   Br    Br    0.171232 0.889529 0.719149 -0.466007
H7    H     H_    0.273139 0.122809 0.268202 0.114023
H8    H     H_    0.560253 0.225744 0.356426 0.120879

loop_
_geom_bond_atom_site_label_1
_geom_bond_atom_site_label_2
_ccdc_geom_bond_type
O17   V3    S    
C21   C24   S    
C27   C28   T    
C7    C8    T    
C1    O6    A    
C19   H8    S    
C31   C32   T    
C13   C14   S    
C33   O16   A    
O13   C36   A    
C9    C10   T    
C23   C24   S    
C15   H5    S    
C12   C13   S    
C6    C7    S    
O5    C3    A    
C25   C26   S    
V2    O10   S    
C21   C22   S    
C19   C26   S    
O8    V2    S    
C25   H4    S    
C24   H3    S    
C11   C12   S    
O1    V2    S    
C11   C14   S    
C16   C17   S    
O7    V1    S    
O11   C34   A    
O12   C33   A    
O19   C36   A    
O9    C4    A    
C4    C5    S    
C17   Br4   S    
C20   C21   S    
C16   H6    S    
C23   C26   S    
O19   V4    S    
C19   C22   S    
O4    C2    A    
C3    C13   S    
O14   C34   A    
C22   C23   S    
C11   C18   S    
C18   C36   S    
O2    C1    A    
C29   C30   T    
O5    V1    S    
C24   C25   S    
C1    C26   S    
C5    C6    T    
C10   C35   S    
O3    C4    A    
O15   C35   A    
C21   C34   S    
C12   Br1   S    
O9    V2    S    
V3    O20   S    
C28   C29   S    
O2    V1    S    
C30   C31   S    
O12   V3    S    
C15   C16   S    
O1    C2    A    
C15   C18   S    
O14   V3    S    
O11   V4    S    
O8    C3    A    
O18   V4    S    
O16   V4    S    
O6    V2    S    
O13   V3    S    
C32   C33   S    
C20   C25   S    
C19   C20   S    
C22   H2    S    
O7    V2    S    
O4    V1    S    
O3    V1    S    
V1    O10   S    
O18   C35   A    
C17   C18   S    
O17   V4    S    
C2    C27   S    
V4    O20   S    
C12   C17   S    
C14   Br3   S    
C20   H7    S    
C11   H1    S    
C8    C9    S    
C13   C16   S    
C14   C15   S    
C23   Br2   S    
O15   V3    S    
