data_mof_unit_pretest_477.cif
_audit_creation_date              2012-12-10T17:24:14-0500
_audit_creation_method            fapswitch 2.2
_symmetry_space_group_name_H-M    P1
_symmetry_Int_Tables_number       1
_space_group_crystal_system       triclinic
_cell_length_a                    19.382815
_cell_length_b                    10.780801
_cell_length_c                    9.63533
_cell_angle_alpha                 91.339607
_cell_angle_beta                  90.220049
_cell_angle_gamma                 92.399347
_cell_volume                      2011.08207149

loop_
_atom_site_label
_atom_site_type_symbol
_atom_type_description
_atom_site_fract_x
_atom_site_fract_y
_atom_site_fract_z
_atom_type_partial_charge
C1    C     C_R   0.501462 0.263213 0.498255 0.863812
C2    C     C_R   0.291343 0.497510 0.496962 -0.233433
C3    C     C_R   0.930487 0.509375 0.506403 0.579817
C4    C     C_R   0.070184 0.505793 0.500450 0.460635
C5    C     C_R   0.817403 0.494083 0.629280 0.575820
C6    C     C_R   0.745423 0.491690 0.627865 0.549017
C7    C     C_R   0.708930 0.501808 0.501838 -0.462837
C8    C     C_R   0.746522 0.513876 0.377586 0.544504
C9    C     C_R   0.818453 0.517308 0.379591 0.576654
C10   C     C_R   0.854535 0.507394 0.505334 -0.433499
C11   C     C_R   0.372276 0.126051 0.472171 -0.122075
C12   C     C_R   0.367516 0.497689 0.499274 0.880059
C13   C     C_R   0.308706 0.062363 0.480369 -0.172851
C14   C     C_R   0.305272 0.939753 0.522107 0.422646
C15   C     C_R   0.366320 0.878414 0.548849 0.298095
C16   C     C_R   0.431621 0.935470 0.516108 -0.077075
C17   C     C_R   0.434289 0.064240 0.492245 0.010928
C18   C     C_R   0.498786 0.129278 0.493692 -0.181140
C19   C     C_R   0.560631 0.067048 0.501803 0.344477
C20   C     C_R   0.558547 0.937850 0.506045 0.314178
C21   C     C_R   0.494540 0.871732 0.510410 -0.194303
C22   C     C_R   0.591776 0.665320 0.147359 -0.173804
C23   C     C_R   0.495481 0.736923 0.502281 0.883525
C24   C     C_R   0.636632 0.745791 0.077113 0.325288
C25   C     C_R   0.635905 0.745895 0.933837 0.623617
C26   C     C_R   0.590731 0.665392 0.860490 -0.179648
C27   C     C_R   0.544636 0.581376 0.927491 0.059089
C28   C     C_R   0.544829 0.581339 0.076695 0.076896
C29   C     C_R   0.457304 0.422055 0.071536 0.462917
C30   C     C_R   0.457109 0.422335 0.923896 0.435160
C31   C     C_R   0.632546 0.500379 0.500354 0.971056
C32   C     C_R   0.254202 0.484768 0.620787 -0.143765
C33   C     C_R   0.182449 0.487035 0.620210 -0.126358
C34   C     C_R   0.146053 0.501990 0.495926 -0.120774
C35   C     C_R   0.182998 0.512430 0.370310 0.334377
C36   C     C_R   0.255032 0.511152 0.371571 0.609397
Cu1   Cu    Cu3+1 0.500000 0.499990 0.640660 1.084358
Cu2   Cu    Cu3+1 0.500000 0.500010 0.359340 1.079435
H1    H     H_    0.280574 0.474026 0.718758 0.248498
H2    H     H_    0.372336 0.223703 0.448933 0.165611
H3    H     H_    0.261818 0.110908 0.462363 0.200586
H4    H     H_    0.596607 0.672092 0.256912 0.245109
H5    H     H_    0.594433 0.672573 0.751277 0.236341
H6    H     H_    0.155348 0.478662 0.717883 0.224100
N1    N     N_R   0.035511 0.574744 0.409583 -0.111429
N2    N     N_R   0.967002 0.576113 0.412045 -0.095505
N3    N     N_R   0.965164 0.442574 0.599557 -0.103548
N4    N     N_R   0.033753 0.440943 0.596760 -0.188062
N5    N     N_R   0.500660 0.501210 0.147910 -0.235020
N6    N     N_R   0.500680 0.501290 0.852040 -0.225222
O1    O     O_R   0.499990 0.319640 0.618810 -0.528686
O2    O     O_R   0.500000 0.319660 0.381240 -0.546341
O3    O     O_R   0.400140 0.499970 0.618820 -0.528174
O4    O     O_R   0.400150 0.500000 0.381250 -0.504278
O5    O     O_R   0.500000 0.680340 0.618760 -0.567967
O6    O     O_R   0.500010 0.680360 0.381190 -0.607250
O7    O     O_R   0.599850 0.500000 0.618750 -0.549435
O8    O     O_R   0.599860 0.500030 0.381180 -0.549075
Cl1   Cl    Cl    0.223359 0.867559 0.549197 -0.458054
Cl2   Cl    Cl    0.359431 0.755677 0.665083 -0.529472
Cl3   Cl    Cl    0.636722 0.858744 0.512592 -0.460793
Cl4   Cl    Cl    0.400718 0.316607 0.155966 -0.456218
Cl5   Cl    Cl    0.694632 0.846349 0.170108 -0.315203
F1    F     F_    0.679434 0.824044 0.864235 -0.531216
Cl6   Cl    Cl    0.399089 0.318489 0.834059 -0.498612
Cl7   Cl    Cl    0.141649 0.520605 0.207326 -0.378101
F2    F     F_    0.289082 0.523836 0.249399 -0.568201
F3    F     F_    0.850728 0.486016 0.752786 -0.505089
F4    F     F_    0.711937 0.478797 0.750556 -0.540614
F5    F     F_    0.714213 0.521794 0.253115 -0.551975
F6    F     F_    0.852692 0.526923 0.257328 -0.503574
Cl8   Cl    Cl    0.641031 0.151296 0.504000 -0.427326

loop_
_geom_bond_atom_site_label_1
_geom_bond_atom_site_label_2
_ccdc_geom_bond_type
C6    F4    S    
C23   O5    A    
C16   C21   A    
C14   Cl1   S    
C2    C36   A    
C24   Cl5   S    
C29   C30   A    
C11   C13   A    
C15   Cl2   S    
C3    N2    A    
C8    F5    S    
C19   C20   A    
Cu2   O4    S    
C27   N6    A    
C19   Cl8   S    
C2    C12   S    
C32   C33   A    
C31   O7    A    
C13   H3    S    
C17   C18   A    
C30   N6    A    
C36   F2    S    
Cu1   O3    S    
C7    C8    A    
C3    C10   S    
C22   C28   A    
C13   C14   A    
C24   C25   A    
Cu1   N6    S    
C1    O1    A    
C1    C18   S    
C22   H4    S    
C12   O3    A    
C5    F3    S    
C5    C6    A    
C31   O8    A    
C3    N3    A    
Cu1   Cu2   S    
C26   H5    S    
C33   C34   A    
C6    C7    A    
C22   C24   A    
C4    N1    A    
C21   C23   S    
C26   C27   A    
C11   H2    S    
Cu1   O1    S    
C1    O2    A    
C4    C34   S    
C30   Cl6   S    
C7    C31   S    
C12   O4    A    
C5    C10   A    
C15   C16   A    
Cu1   O5    S    
N3    N4    A    
C9    F6    S    
C23   O6    A    
Cu2   O6    S    
C20   C21   A    
C2    C32   A    
C34   C35   A    
C9    C10   A    
C32   H1    S    
C4    N4    A    
C20   Cl3   S    
Cu2   N5    S    
Cu2   O2    S    
C29   Cl4   S    
C18   C19   A    
C29   N5    A    
C14   C15   A    
C35   Cl7   S    
C25   C26   A    
N1    N2    A    
C33   H6    S    
Cu1   O7    S    
Cu2   O8    S    
C25   F1    S    
C11   C17   A    
C35   C36   A    
C16   C17   A    
C8    C9    A    
C27   C28   A    
C28   N5    A    
