data_mof_unit_pretest_1675.cif
_audit_creation_date              2013-03-05T16:13:11-0500
_audit_creation_method            fapswitch 2.2
_symmetry_space_group_name_H-M    P1
_symmetry_Int_Tables_number       1
_space_group_crystal_system       triclinic
_cell_length_a                    43.858415
_cell_length_b                    30.28632
_cell_length_c                    30.254362
_cell_angle_alpha                 89.93707
_cell_angle_beta                  133.391173
_cell_angle_gamma                 90.014433
_cell_volume                      29203.2097644

loop_
_atom_site_label
_atom_site_type_symbol
_atom_site_description
_atom_site_fract_x
_atom_site_fract_y
_atom_site_fract_z
_atom_type_partial_charge
O1    O     O_R   0.500000 0.963030 0.565470 -0.577712
O2    O     O_R   0.500000 0.963030 0.434530 -0.577726
O3    O     O_R   0.000000 0.463030 0.565470 -0.577849
O4    O     O_R   0.000000 0.463030 0.434530 -0.577759
O5    O     O_R   0.499990 0.036970 0.565490 -0.625298
O6    O     O_R   0.500010 0.036970 0.434510 -0.625021
O7    O     O_R   0.999990 0.536970 0.565490 -0.625109
O8    O     O_R   0.000010 0.536970 0.434510 -0.625177
C1    C     C_R   0.498712 0.999930 0.584888 0.912531
C2    C     C_R   0.501299 0.999974 0.415125 0.912744
C3    C     C_R   0.998706 0.499932 0.584882 0.912688
C4    C     C_R   0.001299 0.499974 0.415124 0.912703
O9    O     O_R   0.438570 0.963030 0.438570 -0.564925
O10   O     O_R   0.561430 0.963030 0.561430 -0.565660
O11   O     O_R   0.938570 0.463030 0.438570 -0.565589
O12   O     O_R   0.061430 0.463030 0.561430 -0.565696
O13   O     O_R   0.438570 0.036970 0.438590 -0.625221
O14   O     O_R   0.561430 0.036970 0.561410 -0.625265
O15   O     O_R   0.938570 0.536970 0.438590 -0.625285
O16   O     O_R   0.061430 0.536970 0.561410 -0.625238
C5    C     C_R   0.418956 0.000003 0.418948 0.911347
C6    C     C_R   0.581044 0.999976 0.581050 0.911127
C7    C     C_R   0.918956 0.500004 0.418950 0.911358
C8    C     C_R   0.081044 0.499977 0.581050 0.911317
Zn1   Zn    Zn3+2 0.500000 0.950630 0.500000 1.179197
Zn2   Zn    Zn3+2 0.000000 0.450630 0.500000 1.178431
Zn3   Zn    Zn3+2 0.500000 0.049370 0.500000 1.045409
Zn4   Zn    Zn3+2 0.000000 0.549370 0.500000 1.045302
C9    C     C_3   0.274131 0.963864 0.310617 0.444780
C10   C     C_3   0.725947 0.966543 0.686942 0.445245
C11   C     C_3   0.774107 0.466672 0.313225 0.445277
C12   C     C_3   0.225951 0.466726 0.686791 0.445319
C13   C     C_3   0.274521 0.045658 0.285538 -0.429309
C14   C     C_3   0.725383 0.046254 0.717612 -0.429509
C15   C     C_3   0.774540 0.546348 0.282160 -0.429401
C16   C     C_3   0.225383 0.546297 0.717814 -0.429431
C17   C     C_3   0.226170 0.047306 0.232116 0.170253
C18   C     C_3   0.773729 0.047554 0.771145 0.170538
C19   C     C_3   0.726192 0.547623 0.228620 0.170417
C20   C     C_3   0.273729 0.547575 0.771354 0.170362
H1    H     H_    0.214829 0.982871 0.285694 0.248785
H2    H     H_    0.785218 0.988048 0.713294 0.248839
H3    H     H_    0.714800 0.488192 0.286765 0.248809
H4    H     H_    0.285222 0.488380 0.713243 0.248811
H5    H     H_    0.289010 0.070071 0.277171 0.219495
H6    H     H_    0.710841 0.068918 0.727605 0.219349
H7    H     H_    0.789046 0.568990 0.272055 0.219346
H8    H     H_    0.210839 0.568851 0.727905 0.219328
H9    H     H_    0.284417 0.057022 0.328511 0.256301
H10   H     H_    0.715466 0.060009 0.675515 0.256365
H11   H     H_    0.784434 0.560144 0.324188 0.256392
H12   H     H_    0.215466 0.560196 0.675778 0.256386
C21   C     C_1   0.125513 0.999976 0.125377 -0.105805
C22   C     C_1   0.874486 0.999964 0.874616 -0.105772
C23   C     C_1   0.625514 0.499982 0.125384 -0.105989
C24   C     C_1   0.374487 0.499970 0.874617 -0.105723
C25   C     C_3   0.291249 0.998211 0.292224 -0.072812
C26   C     C_3   0.708754 0.998184 0.707612 -0.072886
C27   C     C_3   0.791249 0.498278 0.292400 -0.072872
C28   C     C_3   0.208755 0.498198 0.707599 -0.072874
C29   C     C_3   0.224900 0.969248 0.263465 -0.430627
C30   C     C_3   0.775169 0.972091 0.734489 -0.430321
C31   C     C_3   0.724876 0.472203 0.265651 -0.430365
C32   C     C_3   0.275172 0.472283 0.734364 -0.430353
C33   C     C_3   0.208770 0.999517 0.209376 0.044334
C34   C     C_3   0.791230 0.999510 0.790570 0.044251
C35   C     C_3   0.708771 0.499570 0.209434 0.044323
C36   C     C_3   0.291231 0.499523 0.790566 0.044316
C37   C     C_3   0.225552 0.981117 0.181491 -0.493198
C38   C     C_3   0.774483 0.977873 0.817057 -0.493629
C39   C     C_3   0.725555 0.477891 0.183057 -0.493639
C40   C     C_3   0.274483 0.477694 0.816955 -0.493624
C41   C     C_3   0.274376 0.983497 0.228915 0.136969
C42   C     C_3   0.725653 0.980114 0.769781 0.136831
C43   C     C_3   0.774380 0.480150 0.230322 0.136813
C44   C     C_3   0.225654 0.479926 0.769687 0.136799
C45   C     C_1   0.163018 0.999788 0.163089 0.026524
C46   C     C_1   0.836982 0.999772 0.836887 0.026581
C47   C     C_1   0.663018 0.499810 0.163115 0.026546
C48   C     C_1   0.336983 0.499782 0.836886 0.026485
C49   C     C_1   0.337042 0.999270 0.337638 0.073606
C50   C     C_1   0.662959 0.999195 0.662265 0.073316
C51   C     C_1   0.837042 0.499298 0.337743 0.073266
C52   C     C_1   0.162960 0.499203 0.662255 0.073303
C53   C     C_1   0.374534 0.999879 0.374814 -0.028608
C54   C     C_1   0.625466 0.999801 0.625142 -0.029058
C55   C     C_1   0.874534 0.499886 0.374862 -0.029101
C56   C     C_1   0.125466 0.499804 0.625137 -0.029055
H13   H     H_    0.286117 0.949629 0.233481 0.179162
H14   H     H_    0.713984 0.945801 0.762850 0.178987
H15   H     H_    0.786107 0.445837 0.237424 0.178979
H16   H     H_    0.213986 0.445592 0.762604 0.178962
H17   H     H_    0.215404 0.946168 0.167490 0.218138
H18   H     H_    0.784706 0.942739 0.828634 0.217877
H19   H     H_    0.715391 0.442751 0.171655 0.217895
H20   H     H_    0.284707 0.442554 0.828376 0.217867
H21   H     H_    0.208171 0.937186 0.245476 0.218564
H22   H     H_    0.791964 0.940028 0.750264 0.218720
H23   H     H_    0.708134 0.440135 0.250036 0.218716
H24   H     H_    0.291968 0.440225 0.749998 0.218724
C57   C     C_R   0.522291 0.028628 0.725272 -0.067007
C58   C     C_R   0.477901 0.029140 0.274932 -0.067350
C59   C     C_R   0.022148 0.528849 0.725100 -0.067273
C60   C     C_R   0.977873 0.529072 0.274891 -0.067123
C61   C     C_R   0.520663 0.030357 0.677941 -0.185227
C62   C     C_R   0.479499 0.030720 0.322234 -0.184237
C63   C     C_R   0.020536 0.530507 0.677785 -0.184824
C64   C     C_R   0.979477 0.530680 0.322199 -0.184848
C65   C     C_R   0.496561 0.999558 0.630597 -0.152554
C66   C     C_R   0.503476 0.999721 0.369446 -0.152966
C67   C     C_R   0.996559 0.499578 0.630595 -0.152576
C68   C     C_R   0.003481 0.499713 0.369450 -0.152518
C69   C     C_R   0.472551 0.967512 0.629458 0.293268
C70   C     C_R   0.527404 0.967627 0.370499 0.293149
C71   C     C_R   0.972656 0.467465 0.629593 0.293368
C72   C     C_R   0.027432 0.467629 0.370539 0.293440
C73   C     C_R   0.475127 0.965686 0.677951 -0.164426
C74   C     C_R   0.524844 0.965944 0.322023 -0.163553
C75   C     C_R   0.975228 0.465705 0.678083 -0.164135
C76   C     C_R   0.024868 0.465921 0.322060 -0.164188
C77   C     C_R   0.500055 0.995887 0.725688 0.074318
C78   C     C_R   0.500028 0.996339 0.274404 0.074623
C79   C     C_R   0.000034 0.496040 0.725669 0.075015
C80   C     C_R   0.000024 0.496280 0.274400 0.074940
C81   C     C_R   0.463335 0.000291 0.759749 -0.176800
C82   C     C_R   0.536722 0.000544 0.240282 -0.175232
C83   C     C_R   0.963303 0.500268 0.759728 -0.175668
C84   C     C_R   0.036715 0.500503 0.240277 -0.175718
H25   H     H_    0.434080 0.004245 0.712769 0.177255
H26   H     H_    0.566009 0.004294 0.287263 0.177887
H27   H     H_    0.934021 0.504027 0.712728 0.177773
H28   H     H_    0.065996 0.504298 0.287253 0.177786
C85   C     C_R   0.462940 0.002065 0.805032 -0.144783
C86   C     C_R   0.537102 0.002248 0.194979 -0.147299
C87   C     C_R   0.962910 0.502046 0.805013 -0.149089
C88   C     C_R   0.037095 0.502197 0.194974 -0.149095
H29   H     H_    0.433281 0.006783 0.792326 0.182259
H30   H     H_    0.566779 0.006703 0.207668 0.182390
H31   H     H_    0.933227 0.506559 0.792291 0.182193
H32   H     H_    0.066768 0.506696 0.207661 0.182189
C89   C     C_R   0.500538 0.998302 0.865994 -0.100584
C90   C     C_R   0.499474 0.998701 0.134025 -0.092928
C91   C     C_R   0.000535 0.498519 0.865988 -0.094237
C92   C     C_R   0.999473 0.498600 0.134023 -0.094403
C93   C     C_R   0.538557 0.992208 0.881326 -0.190473
C94   C     C_R   0.461431 0.992966 0.118715 -0.173213
C95   C     C_R   0.038585 0.492697 0.881339 -0.174404
C96   C     C_R   0.961436 0.492809 0.118717 -0.174891
H33   H     H_    0.567562 0.988344 0.928478 0.214888
H34   H     H_    0.432393 0.989293 0.071566 0.214486
H35   H     H_    0.067620 0.489029 0.928508 0.215390
H36   H     H_    0.932405 0.489095 0.071571 0.215329
C97   C     C_R   0.539344 0.989638 0.836080 0.320208
C98   C     C_R   0.460657 0.990446 0.163978 0.315452
C99   C     C_R   0.039374 0.490107 0.836099 0.314708
C100  C     C_R   0.960662 0.490304 0.163982 0.314874
C101  C     C_R   0.501213 0.994440 0.774805 -0.011839
C102  C     C_R   0.498829 0.994974 0.225251 -0.013040
C103  C     C_R   0.001208 0.494644 0.774801 -0.012780
C104  C     C_R   0.998826 0.494893 0.225250 -0.012831
O17   O     O_R   0.000000 0.934650 0.036980 -0.619194
O18   O     O_R   0.000000 0.934650 0.963020 -0.619100
O19   O     O_R   0.500000 0.434650 0.036980 -0.619240
O20   O     O_R   0.500000 0.434650 0.963020 -0.619127
C105  C     C_R   0.999994 0.913791 0.000015 0.905750
C106  C     C_R   0.499993 0.413791 0.000015 0.905758
O21   O     O_R   0.061420 0.000140 0.098400 -0.598032
O22   O     O_R   0.938580 0.000140 0.901600 -0.598940
O23   O     O_R   0.561420 0.500140 0.098400 -0.598902
O24   O     O_R   0.438580 0.500140 0.901600 -0.599413
O25   O     O_R   0.061430 0.000120 0.024480 -0.609031
O26   O     O_R   0.938570 0.000120 0.975520 -0.608527
O27   O     O_R   0.561430 0.500120 0.024480 -0.608366
O28   O     O_R   0.438570 0.500120 0.975520 -0.608596
C107  C     C_R   0.081066 0.000131 0.081013 0.896293
C108  C     C_R   0.918933 0.000130 0.918986 0.896699
C109  C     C_R   0.581066 0.500129 0.081014 0.897038
C110  C     C_R   0.418934 0.500131 0.918986 0.895859
Zn5   Zn    Zn3+2 0.000000 0.000140 0.049370 1.060467
Zn6   Zn    Zn3+2 0.000000 0.000140 0.950630 1.059209
Zn7   Zn    Zn3+2 0.500000 0.500140 0.049370 1.059788
Zn8   Zn    Zn3+2 0.500000 0.500140 0.950630 1.059409
O29   O     O_R   0.999990 0.065630 0.036960 -0.612485
O30   O     O_R   0.000010 0.065630 0.963040 -0.612992
O31   O     O_R   0.499990 0.565630 0.036960 -0.611699
O32   O     O_R   0.500010 0.565630 0.963040 -0.612394
C111  C     C_R   0.000008 0.086430 0.999987 0.922757
C112  C     C_R   0.499740 0.586423 0.999699 0.922023
O33   O     O_R   0.465320 0.065470 0.965350 -0.626049
O34   O     O_R   0.534680 0.065470 0.034650 -0.625511
O35   O     O_R   0.965320 0.565470 0.965350 -0.626964
O36   O     O_R   0.034680 0.565470 0.034650 -0.626889
C113  C     C_R   0.499987 0.086466 0.999996 0.867816
C114  C     C_R   0.999987 0.586466 0.999996 0.865900
O37   O     O_R   0.465320 0.999980 0.899860 -0.627514
O38   O     O_R   0.534680 0.999980 0.100140 -0.626368
O39   O     O_R   0.965320 0.499980 0.899860 -0.629226
O40   O     O_R   0.034680 0.499980 0.100140 -0.629204
O41   O     O_R   0.534680 0.999980 0.969230 -0.606955
O42   O     O_R   0.465320 0.999980 0.030770 -0.602251
O43   O     O_R   0.034680 0.499980 0.969230 -0.601841
O44   O     O_R   0.965320 0.499980 0.030770 -0.601870
C115  C     C_R   0.500119 0.999750 0.913628 0.900493
C116  C     C_R   0.499885 0.999965 0.086378 0.938876
C117  C     C_R   0.000116 0.499890 0.913623 0.933047
C118  C     C_R   0.999884 0.499896 0.086377 0.932974
Zn9   Zn    Zn3+2 0.453690 0.999980 0.953700 1.068934
Zn10  Zn    Zn3+2 0.546310 0.999980 0.046300 1.085829
Zn11  Zn    Zn3+2 0.953690 0.499980 0.953700 1.074347
Zn12  Zn    Zn3+2 0.046310 0.499980 0.046300 1.074342
O45   O     O_R   0.465320 0.934500 0.965310 -0.590555
O46   O     O_R   0.534680 0.934500 0.034690 -0.564982
O47   O     O_R   0.965320 0.434500 0.965310 -0.584453
O48   O     O_R   0.034680 0.434500 0.034690 -0.584526
C119  C     C_R   0.500066 0.913651 0.999934 0.978505
C120  C     C_R   0.000013 0.413669 0.000010 1.014703
C121  C     C_R   0.993328 0.796865 0.953407 0.295862
C122  C     C_R   0.006483 0.796820 0.046655 0.295821
C123  C     C_R   0.493341 0.296865 0.953418 0.295783
C124  C     C_R   0.506467 0.296820 0.046643 0.295843
C125  C     C_R   0.993017 0.842808 0.953723 -0.219344
C126  C     C_R   0.006858 0.842765 0.046329 -0.219492
C127  C     C_R   0.493030 0.342807 0.953734 -0.219452
C128  C     C_R   0.506842 0.342765 0.046317 -0.219561
H37   H     H_    0.987932 0.860669 0.918081 0.212037
H38   H     H_    0.011965 0.860597 0.081963 0.212063
H39   H     H_    0.487956 0.360668 0.918100 0.212039
H40   H     H_    0.511939 0.360596 0.081942 0.212018
C129  C     C_R   0.999959 0.865747 0.000027 -0.157694
C130  C     C_R   0.499958 0.365746 0.000027 -0.157716
C131  C     C_R   0.999894 0.773838 0.000036 -0.184129
C132  C     C_R   0.499892 0.273838 0.000035 -0.184174
C133  C     C_R   0.537645 0.203263 0.043515 -0.047324
C134  C     C_R   0.462185 0.203296 0.956609 -0.047507
C135  C     C_R   0.037648 0.703263 0.043505 -0.047510
C136  C     C_R   0.962185 0.703297 0.956618 -0.047545
H41   H     H_    0.566834 0.221013 0.077111 0.152525
H42   H     H_    0.432979 0.221072 0.923015 0.152492
H43   H     H_    0.066838 0.721012 0.077094 0.152611
H44   H     H_    0.932978 0.721073 0.923031 0.152538
C137  C     C_R   0.537718 0.157505 0.043431 -0.157606
C138  C     C_R   0.462165 0.157536 0.956643 -0.157244
C139  C     C_R   0.037720 0.657505 0.043422 -0.157707
C140  C     C_R   0.962164 0.657537 0.956651 -0.157709
H45   H     H_    0.567181 0.140259 0.077364 0.172656
H46   H     H_    0.432722 0.140315 0.922692 0.172629
H47   H     H_    0.067184 0.640259 0.077347 0.172651
H48   H     H_    0.932720 0.640316 0.922707 0.172597
C141  C     C_R   0.499956 0.134441 0.000018 -0.051029
C142  C     C_R   0.999956 0.634441 0.000018 -0.050132
C143  C     C_R   0.499904 0.225988 0.000068 0.193888
C144  C     C_R   0.999905 0.725988 0.000069 0.193923
C145  C     C_R   0.986422 0.203200 0.948353 0.298193
C146  C     C_R   0.013740 0.203114 0.051629 0.297829
C147  C     C_R   0.481278 0.702619 0.943634 0.297910
C148  C     C_R   0.512377 0.703596 0.049033 0.297700
C149  C     C_R   0.987422 0.157276 0.949596 -0.205592
C150  C     C_R   0.012705 0.157195 0.050385 -0.205480
C151  C     C_R   0.483463 0.656714 0.946188 -0.206081
C152  C     C_R   0.512380 0.657661 0.049116 -0.204434
C153  C     C_R   0.000045 0.134357 0.999985 -0.157472
C154  C     C_R   0.498598 0.634329 0.998389 -0.156684
C155  C     C_R   0.000080 0.226212 0.999987 -0.131136
C156  C     C_R   0.496335 0.726191 0.995708 -0.131054
C157  C     C_R   0.472253 0.797277 0.001902 -0.101958
C158  C     C_R   0.521748 0.796410 0.990279 -0.086219
C159  C     C_R   0.973274 0.296743 0.001807 -0.097426
C160  C     C_R   0.026833 0.296813 0.998167 -0.097693
H49   H     H_    0.453012 0.779317 0.006191 0.192699
H50   H     H_    0.540269 0.778025 0.984966 0.186235
H51   H     H_    0.953090 0.278424 0.003971 0.191510
H52   H     H_    0.047030 0.278551 0.995997 0.191292
C161  C     C_R   0.474330 0.843141 0.005888 0.278918
C162  C     C_R   0.523900 0.842193 0.993085 0.266053
C163  C     C_R   0.973588 0.342640 0.003274 0.270531
C164  C     C_R   0.026506 0.342714 0.996752 0.270695
C165  C     C_R   0.500147 0.865788 0.000995 -0.287190
C166  C     C_R   0.000041 0.365815 0.000021 -0.293737
C167  C     C_R   0.496314 0.774176 0.995110 0.060589
C168  C     C_R   0.000057 0.274149 0.999973 0.062887
N1    N     N_R   0.286007 0.918338 0.308635 0.204949
O49   O     O_R   0.258124 0.888667 0.270595 -0.364873
O50   O     O_R   0.325433 0.907526 0.344499 -0.297811
N2    N     N_R   0.714160 0.920114 0.685723 0.205101
O51   O     O_R   0.742100 0.889787 0.721682 -0.364789
O52   O     O_R   0.674755 0.909052 0.649083 -0.295264
N3    N     N_R   0.785969 0.420235 0.314673 0.205095
O53   O     O_R   0.758079 0.389892 0.278854 -0.364773
O54   O     O_R   0.825393 0.409182 0.351375 -0.295203
N4    N     N_R   0.214166 0.420250 0.685367 0.205086
O55   O     O_R   0.242107 0.389890 0.721197 -0.364877
O56   O     O_R   0.174761 0.409174 0.648674 -0.295160
H53   H     H_    0.211581 0.999590 0.139365 0.233158
H54   H     H_    0.788411 0.994242 0.860387 0.233260
H55   H     H_    0.711600 0.494221 0.139645 0.233209
H56   H     H_    0.288410 0.493931 0.860357 0.233219
H57   H     H_    0.541053 0.052533 0.761781 0.164880
H58   H     H_    0.459229 0.053192 0.238516 0.164876
H59   H     H_    0.040811 0.552858 0.761487 0.164652
H60   H     H_    0.959178 0.553098 0.238443 0.164689
H61   H     H_    0.539002 0.055096 0.678978 0.183660
H62   H     H_    0.461232 0.055505 0.321268 0.184292
H63   H     H_    0.038788 0.555304 0.678716 0.183674
H64   H     H_    0.961191 0.555455 0.321206 0.183632
N5    N     N_R   0.444393 0.938089 0.578808 0.227818
O57   O     O_R   0.420664 0.952750 0.523374 -0.339292
O58   O     O_R   0.437613 0.898644 0.587580 -0.297616
N6    N     N_R   0.555463 0.938007 0.421046 0.227998
O59   O     O_R   0.579245 0.952473 0.476531 -0.336817
O60   O     O_R   0.562114 0.898564 0.412136 -0.297986
N7    N     N_R   0.944602 0.437911 0.579076 0.227931
O61   O     O_R   0.920797 0.452456 0.523576 -0.336815
O62   O     O_R   0.937977 0.398447 0.588032 -0.298303
N8    N     N_R   0.055515 0.438043 0.421121 0.227949
O63   O     O_R   0.079279 0.452540 0.476589 -0.336842
O64   O     O_R   0.062201 0.398602 0.412260 -0.298337
H65   H     H_    0.457121 0.941276 0.678104 0.193250
H66   H     H_    0.542768 0.941484 0.321785 0.193665
H67   H     H_    0.957312 0.441239 0.678349 0.193290
H68   H     H_    0.042811 0.441468 0.321851 0.193268
N9    N     N_R   0.292073 0.972137 0.372975 0.207886
O65   O     O_R   0.315115 0.942371 0.415358 -0.235449
O66   O     O_R   0.282205 0.007232 0.385608 -0.341296
N10   N     N_R   0.707996 0.978044 0.625276 0.207223
O67   O     O_R   0.685030 0.949759 0.580882 -0.238241
O68   O     O_R   0.717796 0.014704 0.615140 -0.341868
N11   N     N_R   0.792036 0.478228 0.374833 0.207184
O69   O     O_R   0.815044 0.449973 0.419365 -0.238482
O70   O     O_R   0.782179 0.514908 0.384787 -0.341943
N12   N     N_R   0.208002 0.478421 0.625178 0.207169
O71   O     O_R   0.185038 0.450231 0.580659 -0.238595
O72   O     O_R   0.217800 0.515170 0.615206 -0.341929
N13   N     N_R   0.578505 0.981163 0.852869 0.213952
O73   O     O_R   0.579668 0.956672 0.818729 -0.312709
O74   O     O_R   0.613732 0.993559 0.905792 -0.324033
N14   N     N_R   0.421467 0.982258 0.147205 0.214142
O75   O     O_R   0.420187 0.957700 0.181229 -0.312969
O76   O     O_R   0.386301 0.994968 0.094367 -0.325887
N15   N     N_R   0.078576 0.481859 0.852924 0.214067
O77   O     O_R   0.079872 0.457299 0.818971 -0.312580
O78   O     O_R   0.113733 0.494528 0.905737 -0.325275
N16   N     N_R   0.921480 0.482075 0.147217 0.214032
O79   O     O_R   0.920226 0.457544 0.181287 -0.312693
O80   O     O_R   0.886300 0.494725 0.094352 -0.325315
N17   N     N_R   0.987433 0.774320 0.906065 0.216473
O81   O     O_R   0.964399 0.792076 0.852341 -0.339909
O82   O     O_R   0.008794 0.738891 0.918047 -0.357655
N18   N     N_R   0.012352 0.774228 0.094005 0.216496
O83   O     O_R   0.035353 0.791929 0.147697 -0.339910
O84   O     O_R   0.991011 0.738802 0.082060 -0.357764
N19   N     N_R   0.487461 0.274319 0.906088 0.216473
O85   O     O_R   0.464444 0.292079 0.852370 -0.339982
O86   O     O_R   0.508820 0.238887 0.918080 -0.357335
N20   N     N_R   0.512321 0.274228 0.093980 0.216490
O87   O     O_R   0.535311 0.291930 0.147670 -0.339983
O88   O     O_R   0.490978 0.238801 0.082024 -0.357901
N21   N     N_R   0.970723 0.225760 0.894157 0.222567
O89   O     O_R   0.946758 0.260336 0.874279 -0.330758
O90   O     O_R   0.975886 0.208562 0.860272 -0.318388
N22   N     N_R   0.029461 0.225581 0.105829 0.222552
O91   O     O_R   0.053443 0.260114 0.125695 -0.331114
O92   O     O_R   0.024295 0.208336 0.139725 -0.317929
N23   N     N_R   0.463156 0.724578 0.887860 0.224940
O93   O     O_R   0.439328 0.759108 0.869252 -0.327892
O94   O     O_R   0.466155 0.706978 0.851748 -0.315863
N24   N     N_R   0.529762 0.726609 0.103738 0.221510
O95   O     O_R   0.553815 0.760844 0.121948 -0.329782
O96   O     O_R   0.526317 0.709907 0.139792 -0.317058
H69   H     H_    0.976910 0.139367 0.910192 0.213641
H70   H     H_    0.023206 0.139225 0.089794 0.213896
H71   H     H_    0.471970 0.638339 0.906522 0.213331
H72   H     H_    0.524724 0.640094 0.089800 0.212630
N25   N     N_R   0.451406 0.865921 0.017089 0.231224
O97   O     O_R   0.468866 0.898047 0.056256 -0.380520
O98   O     O_R   0.415652 0.850426 0.995296 -0.316070
N26   N     N_R   0.549030 0.864175 0.985537 0.204653
O99   O     O_R   0.583436 0.883970 0.031646 -0.316482
O100  O     O_R   0.542819 0.855935 0.937671 -0.326593
N27   N     N_R   0.948250 0.364960 0.010430 0.230805
O101  O     O_R   0.964036 0.396910 0.049556 -0.380402
O102  O     O_R   0.911889 0.348893 0.985348 -0.314043
N28   N     N_R   0.051841 0.365120 0.989630 0.230769
O103  O     O_R   0.036028 0.397126 0.950472 -0.380757
O104  O     O_R   0.088229 0.349077 0.014756 -0.314305
N29   N     N_R   0.206096 0.072006 0.248210 0.224085
O105  O     O_R   0.182828 0.106114 0.215828 -0.334013
O106  O     O_R   0.212361 0.061666 0.295658 -0.304301
N30   N     N_R   0.793755 0.074853 0.756862 0.223947
O107  O     O_R   0.816945 0.108220 0.791579 -0.334485
O108  O     O_R   0.787518 0.067554 0.708812 -0.304055
N31   N     N_R   0.706120 0.574952 0.242765 0.223985
O109  O     O_R   0.682871 0.608295 0.207880 -0.334223
O110  O     O_R   0.712369 0.567703 0.290852 -0.303936
N32   N     N_R   0.293756 0.575026 0.757196 0.223983
O111  O     O_R   0.316955 0.608334 0.792072 -0.334423
O112  O     O_R   0.287519 0.567916 0.709113 -0.303716
H73   H     H_    0.219221 0.065394 0.193931 0.172487
H74   H     H_    0.780636 0.063310 0.810497 0.172648
H75   H     H_    0.719259 0.563340 0.189189 0.172575
H76   H     H_    0.280634 0.563186 0.810775 0.172594
N33   N     N_R   0.289509 0.011962 0.207907 0.229381
O113  O     O_R   0.317888 0.997087 0.209075 -0.321268
O114  O     O_R   0.272891 0.050497 0.183768 -0.368681
N34   N     N_R   0.710456 0.005845 0.792656 0.229349
O115  O     O_R   0.682104 0.988999 0.790375 -0.319860
O116  O     O_R   0.726992 0.043737 0.819447 -0.368325
N35   N     N_R   0.789536 0.505845 0.207320 0.229353
O117  O     O_R   0.817917 0.488981 0.209687 -0.319772
O118  O     O_R   0.772937 0.543718 0.180340 -0.368442
N36   N     N_R   0.210453 0.505487 0.792674 0.229350
O119  O     O_R   0.182101 0.488524 0.790316 -0.319739
O120  O     O_R   0.226988 0.543333 0.819632 -0.368383

loop_
_geom_bond_atom_site_label_1
_geom_bond_atom_site_label_2
_geom_bond_distance
_ccdc_geom_bond_type
C85   H29   1.083150 S    
N21   O89   1.301405 A    
O40   C118  1.276424 A    
C13   H5    1.111271 S    
C90   C94   1.402420 A    
C51   C55   1.195092 T    
H1    C29   1.107445 S    
C123  C132  1.413962 A    
C88   H32   1.083151 S    
C59   C79   1.396692 A    
C39   H55   1.112857 S    
H3    C31   1.107462 S    
N13   O73   1.301412 A    
H4    C32   1.107459 S    
C87   H31   1.083149 S    
C159  C163  1.390556 A    
O24   C110  1.281346 A    
C9    N9    1.484083 S    
N2    O51   1.302118 A    
C98   C102  1.412260 A    
C37   H17   1.113398 S    
C26   C50   1.459840 S    
O37   C115  1.276522 A    
C125  H37   1.083302 S    
C22   C108  1.416592 S    
C133  H41   1.083530 S    
C94   H34   1.083217 S    
C72   N8    1.438655 S    
C126  C129  1.397824 A    
N6    O60   1.301395 A    
N10   O67   1.302176 A    
Zn11  O47   2.017238 S    
C38   C42   1.558210 S    
N3    O54   1.302389 A    
O38   C116  1.276401 A    
C95   C99   1.394951 A    
C89   C93   1.402446 A    
C15   H7    1.111277 S    
C139  C142  1.403099 A    
C105  C129  1.455088 S    
C120  C166  1.449319 S    
C128  H40   1.083296 S    
C31   C35   1.557324 S    
C121  C125  1.391614 A    
C43   H15   1.112938 S    
C33   C45   1.458359 S    
N12   O71   1.302174 A    
C137  C141  1.403098 A    
N16   O79   1.301412 A    
O16   Zn4   1.993286 S    
N8    O63   1.301348 A    
O22   Zn6   1.991666 S    
C28   C44   1.571355 S    
O13   C5    1.282666 A    
O7    Zn4   2.016524 S    
C71   N7    1.438644 S    
C57   H57   1.083527 S    
O18   C105  1.284811 A    
C94   C98   1.394918 A    
C36   C40   1.555111 S    
C78   C102  1.452066 S    
O9    C5    1.282081 A    
C61   H61   1.083670 S    
C40   H56   1.112856 S    
O36   Zn12  2.017532 S    
C63   H63   1.083667 S    
O22   C108  1.281348 A    
C64   H64   1.083666 S    
O26   Zn5   1.995031 S    
C42   N34   1.471656 S    
O27   Zn8   1.995030 S    
C148  C156  1.415753 A    
C15   H11   1.105751 S    
O8    Zn4   2.017337 S    
C149  C153  1.396652 A    
C148  N24   1.440418 S    
O44   C118  1.274492 A    
C138  C141  1.403099 A    
O3    Zn2   2.016447 S    
C98   N14   1.440511 S    
C52   C56   1.195102 T    
C19   H75   1.114712 S    
N14   O75   1.301407 A    
O31   C112  1.284142 A    
O41   C115  1.274406 A    
C75   C79   1.396697 A    
C122  N18   1.441488 S    
C42   H14   1.112938 S    
C20   H76   1.114711 S    
O35   C114  1.275173 A    
C151  H71   1.083582 S    
C34   C38   1.555113 S    
C79   C103  1.452142 S    
C80   C104  1.452096 S    
N18   O83   1.301500 A    
N16   O80   1.301470 A    
C83   H27   1.083930 S    
O3    C3    1.282378 A    
N32   O111  1.301149 A    
C40   H20   1.113402 S    
C29   C33   1.557310 S    
C39   H19   1.113399 S    
C82   C86   1.383009 A    
N9    O65   1.302173 A    
C14   C26   1.562116 S    
C59   C63   1.384728 A    
N8    O64   1.301396 A    
O17   C105  1.284870 A    
Zn6   O30   2.019024 S    
O36   C114  1.275143 A    
N29   O106  1.300527 A    
O19   Zn7   2.018964 S    
N19   O85   1.301501 A    
N33   O113  1.301212 A    
C24   C110  1.416579 S    
C74   H66   1.083939 S    
C32   C36   1.557334 S    
C158  C162  1.388518 A    
Zn8   O32   2.019024 S    
C127  H39   1.083300 S    
C11   C27   1.589865 S    
C155  C168  1.451850 S    
C159  C168  1.393240 A    
C74   C78   1.396685 A    
C25   C41   1.571342 S    
C31   H23   1.108893 S    
O5    Zn3   2.016524 S    
C160  H52   1.084007 S    
N30   O107  1.301145 A    
N5    O58   1.301396 A    
C17   C33   1.559084 S    
C114  C142  1.453001 S    
C14   H6    1.111277 S    
O17   Zn5   2.018964 S    
C66   C70   1.414796 A    
O18   Zn6   2.018155 S    
C16   H12   1.105747 S    
C127  C130  1.397814 A    
C60   H60   1.083526 S    
C145  C155  1.414690 A    
C70   N6    1.438648 S    
C87   C91   1.398125 A    
O24   Zn8   1.991666 S    
Zn9   O45   2.017238 S    
C135  C144  1.396634 A    
C136  C144  1.396651 A    
O23   C109  1.281353 A    
N22   O91   1.301409 A    
N26   O100  1.300928 A    
O7    C3    1.284379 A    
C9    C29   1.578441 S    
C30   C34   1.557335 S    
C99   C103  1.412264 A    
O13   Zn3   1.993805 S    
N30   O108  1.300535 A    
C11   C31   1.578455 S    
C100  C104  1.412273 A    
C163  C166  1.415857 A    
N34   O115  1.301212 A    
C12   C32   1.578467 S    
N11   O70   1.300631 A    
C10   N10   1.484067 S    
C72   C76   1.392864 A    
C90   C116  1.454461 S    
O38   Zn10  2.013711 S    
C95   H35   1.083218 S    
O5    C1    1.284422 A    
C27   C51   1.459835 S    
C81   H25   1.083932 S    
O46   C119  1.271524 A    
O8    C4    1.284395 A    
C160  C164  1.390567 A    
O15   Zn4   1.993805 S    
N36   O119  1.301209 A    
C134  C138  1.385899 A    
C69   C73   1.392943 A    
C157  C161  1.391941 A    
O35   Zn11  2.018040 S    
C71   C75   1.392929 A    
N7    O62   1.301396 A    
O4    C4    1.282320 A    
O44   Zn11  2.015669 S    
C162  N26   1.433591 S    
C4    C68   1.449270 S    
C21   C107  1.416581 S    
O21   C107  1.281369 A    
O34   Zn10  2.017532 S    
N31   O110  1.300531 A    
C61   C65   1.400454 A    
O14   C6    1.282625 A    
C63   C67   1.400478 A    
C11   N3    1.489775 S    
C96   H36   1.083218 S    
C134  C143  1.396652 A    
C58   H58   1.083528 S    
C60   C80   1.396701 A    
C161  N25   1.439004 S    
C158  C167  1.393738 A    
N1    O50   1.302386 A    
C24   C48   1.195375 T    
O30   C111  1.283749 A    
O10   C6    1.282128 A    
N2    O52   1.302389 A    
C62   H62   1.083668 S    
O48   C120  1.272698 A    
C18   H74   1.114712 S    
C148  C152  1.391195 A    
O41   Zn10  2.015667 S    
C16   H8    1.111278 S    
N35   O118  1.301503 A    
C100  N16   1.440515 S    
O40   Zn12  2.013711 S    
C145  C149  1.391251 A    
N10   O68   1.300647 A    
N20   O87   1.301502 A    
C13   H9    1.105758 S    
O43   C117  1.274486 A    
C49   C53   1.195097 T    
O26   C108  1.281909 A    
O21   Zn5   1.991658 S    
N28   O103  1.301175 A    
C27   C43   1.571353 S    
C162  C165  1.413001 A    
O39   C117  1.276447 A    
C68   C72   1.414799 A    
C99   N15   1.440527 S    
N27   O101  1.301195 A    
N6    O59   1.301350 A    
C59   H59   1.083531 S    
C26   C42   1.571356 S    
C138  H46   1.083051 S    
N12   O72   1.300631 A    
C38   H18   1.113401 S    
C83   C87   1.383053 A    
C145  N21   1.440846 S    
C84   C88   1.383009 A    
C81   C101  1.399646 A    
C82   H26   1.083930 S    
C123  N19   1.441475 S    
C156  C167  1.453380 S    
C15   C27   1.562110 S    
N4    O55   1.302115 A    
C134  H42   1.083525 S    
C157  H49   1.083949 S    
N24   O95   1.301414 A    
O34   C113  1.275146 A    
C159  H51   1.084014 S    
C19   C35   1.559084 S    
C13   C25   1.562107 S    
N23   O93   1.301420 A    
C37   C41   1.558211 S    
N17   O82   1.301328 A    
O28   C110  1.281908 A    
C92   C96   1.402422 A    
N21   O90   1.301468 A    
O12   Zn2   1.993801 S    
C23   C109  1.416590 S    
C149  H69   1.083549 S    
C92   C118  1.454447 S    
N13   O74   1.301471 A    
C1    C65   1.449351 S    
C34   C46   1.458373 S    
C5    C53   1.415765 S    
C3    C67   1.449335 S    
O19   C106  1.284870 A    
O1    C1    1.282342 A    
N14   O76   1.301468 A    
C50   C54   1.195097 T    
C57   C77   1.396736 A    
C64   C68   1.400475 A    
C15   C19   1.549984 S    
C128  C130  1.397825 A    
C86   C90   1.398117 A    
C23   C47   1.195381 T    
N15   O77   1.301409 A    
N18   O84   1.301329 A    
C35   C47   1.458366 S    
C132  C143  1.449203 S    
C8    C56   1.415786 S    
O23   Zn7   1.991658 S    
N32   O112  1.300532 A    
C9    C25   1.589874 S    
O42   Zn9   2.015669 S    
C139  H47   1.083050 S    
C10   C30   1.578473 S    
C37   H53   1.112856 S    
C12   C28   1.589851 S    
O32   C112  1.283117 A    
C60   C64   1.384779 A    
C133  C143  1.396634 A    
C13   C17   1.549989 S    
N29   O105  1.301147 A    
O47   C120  1.272671 A    
C135  H43   1.083532 S    
C29   H21   1.108892 S    
C43   N35   1.471663 S    
C20   N32   1.470373 S    
O6    C2    1.284378 A    
O4    Zn2   2.015639 S    
N19   O86   1.301325 A    
C160  C168  1.393209 A    
C85   C89   1.398150 A    
C41   H13   1.112937 S    
N11   O69   1.302174 A    
C88   C92   1.398128 A    
C150  H70   1.083555 S    
C91   C117  1.454493 S    
O33   Zn9   2.018040 S    
C33   C37   1.555125 S    
C11   N11   1.484075 S    
C111  C153  1.451527 S    
C2    C66   1.449256 S    
O2    Zn1   2.015639 S    
C35   C39   1.555108 S    
C6    C54   1.415776 S    
O10   Zn1   1.993801 S    
C97   C101  1.412290 A    
C161  C165  1.415666 A    
O20   Zn8   2.018155 S    
C123  C127  1.391617 A    
C140  H48   1.083049 S    
C32   H24   1.108894 S    
O37   Zn9   2.013711 S    
C147  C156  1.414433 A    
C9    N1    1.489784 S    
N5    O57   1.301344 A    
C20   C36   1.559069 S    
C125  C129  1.397814 A    
C126  H38   1.083299 S    
C96   C100  1.394964 A    
C58   C78   1.396692 A    
C93   H33   1.083230 S    
C22   C46   1.195378 T    
C12   N4    1.489774 S    
C36   C48   1.458361 S    
O45   C119  1.274406 A    
N7    O61   1.301348 A    
O15   C7    1.282656 A    
C40   C44   1.558205 S    
C151  C154  1.397129 A    
N22   O92   1.301467 A    
N31   O109  1.301147 A    
C91   C95   1.402437 A    
C163  N27   1.438779 S    
C140  C142  1.403098 A    
C137  H45   1.083050 S    
N34   O116  1.301507 A    
O29   C111  1.283649 A    
N27   O102  1.301383 A    
C146  C150  1.391138 A    
C112  C154  1.451322 S    
C38   H54   1.112857 S    
C73   C77   1.396679 A    
C30   H22   1.108891 S    
C18   C34   1.559070 S    
N9    O66   1.300614 A    
C106  C130  1.455098 S    
C69   N5    1.438654 S    
N35   O117  1.301208 A    
C113  C141  1.452998 S    
C147  N23   1.440996 S    
Zn10  O46   2.017743 S    
C93   C97   1.395081 A    
O11   C7    1.282092 A    
C124  N20   1.441489 S    
O12   C8    1.282140 A    
C7    C55   1.415768 S    
O1    Zn1   2.016447 S    
N23   O94   1.301483 A    
O9    Zn1   1.993294 S    
C97   N13   1.440543 S    
C131  C144  1.449206 S    
C84   H28   1.083935 S    
O28   Zn7   1.995031 S    
C44   N36   1.471662 S    
N33   O114  1.301504 A    
C17   N29   1.470367 S    
C122  C126  1.391708 A    
Zn5   O29   2.018213 S    
C82   C102  1.399637 A    
C57   C61   1.384831 A    
C147  C151  1.392011 A    
C14   H10   1.105747 S    
C124  C132  1.413977 A    
O16   C8    1.282616 A    
C16   C20   1.549978 S    
C152  C154  1.395580 A    
C158  H50   1.084212 S    
Zn7   O31   2.018213 S    
C157  C167  1.394241 A    
O11   Zn2   1.993294 S    
C19   N31   1.470363 S    
N1    O49   1.302110 A    
Zn12  O48   2.017743 S    
O25   C107  1.281894 A    
C136  H44   1.083526 S    
C146  N22   1.440854 S    
C164  N28   1.438731 S    
O33   C113  1.275170 A    
O42   C116  1.274521 A    
O6    Zn3   2.017337 S    
O27   C109  1.281910 A    
C135  C139  1.385867 A    
C10   N2    1.489769 S    
C70   C74   1.392863 A    
C17   H73   1.114712 S    
C44   H16   1.112940 S    
C133  C137  1.385867 A    
N15   O78   1.301471 A    
C164  C166  1.415885 A    
C146  C155  1.414632 A    
N20   O88   1.301328 A    
N3    O53   1.302115 A    
C12   N12   1.484070 S    
C21   C45   1.195377 T    
C25   C49   1.459835 S    
O25   Zn6   1.995030 S    
C150  C153  1.396668 A    
O2    C2    1.282334 A    
C83   C103  1.399654 A    
O43   Zn12  2.015667 S    
C124  C128  1.391706 A    
N26   O99   1.300631 A    
C84   C104  1.399630 A    
C62   C66   1.400483 A    
C81   C85   1.383070 A    
H2    C30   1.107472 S    
N28   O104  1.301381 A    
C14   C18   1.549961 S    
N36   O120  1.301506 A    
C152  H72   1.083664 S    
O14   Zn3   1.993286 S    
C89   C115  1.454519 S    
C16   C28   1.562130 S    
C86   H30   1.083154 S    
C67   C71   1.414824 A    
C65   C69   1.414826 A    
C136  C140  1.385899 A    
O20   C106  1.284811 A    
N25   O97   1.301012 A    
C121  C131  1.413959 A    
C39   C43   1.558202 S    
C28   C52   1.459850 S    
C73   H65   1.083938 S    
C10   C26   1.589854 S    
N25   O98   1.301414 A    
C75   H67   1.083938 S    
C58   C62   1.384739 A    
N4    O56   1.302388 A    
C76   H68   1.083937 S    
N24   O96   1.301436 A    
C122  C131  1.413978 A    
O39   Zn11  2.013711 S    
C121  N17   1.441471 S    
C119  C165  1.449848 S    
C77   C101  1.452200 S    
N17   O81   1.301501 A    
C76   C80   1.396680 A    
C41   N33   1.471658 S    
C18   N30   1.470365 S    
