data_mof_unit_pretest_1201.cif
_audit_creation_date              2013-03-05T15:47:26-0500
_audit_creation_method            fapswitch 2.2
_symmetry_space_group_name_H-M    P1
_symmetry_Int_Tables_number       1
_space_group_crystal_system       triclinic
_cell_length_a                    17.491238
_cell_length_b                    19.266206
_cell_length_c                    11.894101
_cell_angle_alpha                 89.409917
_cell_angle_beta                  74.581323
_cell_angle_gamma                 90.099672
_cell_volume                      3863.68441251

loop_
_atom_site_label
_atom_site_type_symbol
_atom_site_description
_atom_site_fract_x
_atom_site_fract_y
_atom_site_fract_z
_atom_type_partial_charge
O1    O     O_R   0.430030 0.075530 0.417420 -0.599058
O2    O     O_R   0.569970 0.924470 0.582580 -0.592101
O3    O     O_R   0.569970 0.075530 0.582580 -0.599097
O4    O     O_R   0.430030 0.924470 0.417420 -0.591469
O5    O     O_R   0.930030 0.575530 0.417420 -0.591189
O6    O     O_R   0.069970 0.424470 0.582580 -0.590774
O7    O     O_R   0.069970 0.575530 0.582580 -0.598091
O8    O     O_R   0.930030 0.424470 0.417420 -0.588875
O9    O     O_R   0.416860 0.075510 0.614610 -0.581772
O10   O     O_R   0.583140 0.924490 0.385390 -0.581874
O11   O     O_R   0.583140 0.075510 0.385390 -0.574251
O12   O     O_R   0.416860 0.924490 0.614610 -0.573562
O13   O     O_R   0.916860 0.575510 0.614610 -0.581265
O14   O     O_R   0.083140 0.424490 0.385390 -0.581034
O15   O     O_R   0.083140 0.575510 0.385390 -0.579839
O16   O     O_R   0.916860 0.424490 0.614610 -0.577555
C1    C     C_R   0.401770 0.101759 0.520911 0.812794
C2    C     C_R   0.598913 0.898595 0.478236 0.832330
C3    C     C_R   0.599165 0.101228 0.477971 0.821424
C4    C     C_R   0.395989 0.902530 0.523771 0.822697
C5    C     C_R   0.901716 0.601889 0.521582 0.831053
C6    C     C_R   0.096811 0.397131 0.479157 0.818188
C7    C     C_R   0.104589 0.597126 0.476406 0.816440
C8    C     C_R   0.900427 0.399141 0.522267 0.818516
C9    C     C_R   0.406988 0.001615 0.870242 0.313562
C10   C     C_R   0.593496 0.997828 0.130707 0.309615
C11   C     C_R   0.907000 0.508449 0.868318 0.322028
C12   C     C_R   0.089725 0.480022 0.131721 0.321355
Cu1   Cu    Cu3+1 0.507800 1.000000 0.383250 0.915563
Cu2   Cu    Cu3+1 0.492200 0.000000 0.616750 0.917847
Cu3   Cu    Cu3+1 0.007800 0.500000 0.383250 0.920628
Cu4   Cu    Cu3+1 0.992200 0.500000 0.616750 0.914229
C13   C     C_R   0.396237 0.981812 0.988256 0.116509
C14   C     C_R   0.602792 0.978583 0.013058 0.089471
C15   C     C_R   0.900066 0.527622 0.985270 0.090880
C16   C     C_R   0.093727 0.463508 0.015004 0.082805
C17   C     C_R   0.546294 0.990778 0.836777 0.292810
C18   C     C_R   0.453284 0.991326 0.164125 0.293413
C19   C     C_R   0.045120 0.491688 0.838379 0.297626
C20   C     C_R   0.954072 0.510047 0.162971 0.307482
C21   C     C_R   0.650530 0.162620 0.466878 -0.128050
C22   C     C_R   0.335241 0.847780 0.540262 -0.141431
C23   C     C_R   0.347653 0.160891 0.531634 -0.151898
C24   C     C_R   0.653446 0.839376 0.464499 -0.144168
C25   C     C_R   0.167635 0.650128 0.461766 -0.121153
C26   C     C_R   0.847051 0.339190 0.535448 -0.133503
C27   C     C_R   0.848691 0.662299 0.534789 -0.145636
C28   C     C_R   0.145953 0.334125 0.468824 -0.130868
C29   C     C_R   0.212946 0.789460 0.647206 0.508480
C30   C     C_R   0.690318 0.280311 0.398305 0.467616
C31   C     C_R   0.739210 0.752365 0.348345 0.476255
C32   C     C_R   0.268960 0.252292 0.643388 0.474227
C33   C     C_R   0.798778 0.225866 0.616586 0.466400
C34   C     C_R   0.294916 0.703499 0.361620 0.470130
C35   C     C_R   0.213047 0.233564 0.364188 0.463332
C36   C     C_R   0.764532 0.750630 0.650316 0.479092
C37   C     C_R   0.267722 0.844077 0.638006 0.090274
C38   C     C_R   0.644000 0.220522 0.395623 0.061007
C39   C     C_R   0.678154 0.801164 0.359522 0.079353
C40   C     C_R   0.333646 0.207402 0.626235 0.090612
C41   C     C_R   0.850873 0.282576 0.610448 0.058761
C42   C     C_R   0.237012 0.652005 0.366661 0.075265
C43   C     C_R   0.155484 0.286383 0.375961 0.052288
C44   C     C_R   0.824947 0.701120 0.639208 0.076530
C45   C     C_R   0.344786 0.799084 0.452187 -0.281162
C46   C     C_R   0.701579 0.165251 0.539480 -0.277958
C47   C     C_R   0.682224 0.821455 0.559800 -0.287729
C48   C     C_R   0.306418 0.169300 0.445904 -0.277502
C49   C     C_R   0.794157 0.337697 0.465761 -0.281237
C50   C     C_R   0.160056 0.697045 0.552450 -0.287981
C51   C     C_R   0.182045 0.320331 0.558161 -0.291681
C52   C     C_R   0.820881 0.681193 0.439113 -0.290201
C53   C     C_R   0.286748 0.749121 0.455087 -0.033955
C54   C     C_R   0.748115 0.223751 0.541874 -0.036050
C55   C     C_R   0.736996 0.768494 0.552798 -0.043189
C56   C     C_R   0.251697 0.222849 0.452849 -0.024482
C57   C     C_R   0.744216 0.280788 0.468268 -0.035200
C58   C     C_R   0.219761 0.745008 0.552066 -0.057977
C59   C     C_R   0.233421 0.264842 0.552202 -0.059254
C60   C     C_R   0.766360 0.734317 0.446098 -0.044081
N1    N     N_R   0.519530 0.000000 0.207810 -0.193359
N2    N     N_R   0.480470 0.000000 0.792190 -0.193710
N3    N     N_R   0.019530 0.500000 0.207810 -0.197505
N4    N     N_R   0.980470 0.500000 0.792190 -0.194135
H1    H     H_    0.705156 0.120698 0.594169 0.195008
H2    H     H_    0.397377 0.801567 0.379249 0.208125
H3    H     H_    0.317456 0.134148 0.372927 0.212701
H4    H     H_    0.662050 0.849327 0.640362 0.200169
H5    H     H_    0.106975 0.695587 0.624627 0.198148
H6    H     H_    0.792735 0.381406 0.408299 0.196013
H7    H     H_    0.841561 0.653960 0.358210 0.200121
H8    H     H_    0.171831 0.354171 0.632084 0.196968
C61   C     C_R   0.537796 0.985455 0.961829 -0.072737
C62   C     C_R   0.461395 0.986134 0.039509 -0.073240
C63   C     C_R   0.034242 0.487620 0.963051 -0.078829
C64   C     C_R   0.962390 0.510568 0.038186 -0.070345
C65   C     C_3   0.666443 0.019272 0.167389 -0.792782
H9    H     H_    0.721635 0.016016 0.095517 0.203963
H10   H     H_    0.662107 0.074796 0.190206 0.228915
H11   H     H_    0.675416 0.987327 0.240132 0.250392
C66   C     C_3   0.337725 0.032876 0.836309 -0.819062
H12   H     H_    0.280683 0.028059 0.904430 0.208767
H13   H     H_    0.348651 0.088986 0.822140 0.234122
H14   H     H_    0.330452 0.009531 0.756688 0.264025
C67   C     C_3   0.165548 0.476470 0.167632 -0.828706
H15   H     H_    0.157706 0.499042 0.252567 0.281046
H16   H     H_    0.187017 0.422943 0.172303 0.212521
H17   H     H_    0.212433 0.506424 0.104352 0.205763
C68   C     C_3   0.832374 0.489544 0.833855 -0.797402
H18   H     H_    0.834965 0.434294 0.808872 0.230075
H19   H     H_    0.778483 0.493206 0.907973 0.202510
H20   H     H_    0.822068 0.522580 0.763444 0.243488
C69   C     C_3   0.370385 0.992095 0.245460 -0.751460
H21   H     H_    0.333582 0.031202 0.215671 0.209155
H22   H     H_    0.343598 0.939688 0.253284 0.207874
H23   H     H_    0.364986 0.005431 0.334965 0.262761
C70   C     C_3   0.629448 0.994187 0.756580 -0.757111
H24   H     H_    0.663874 0.035354 0.785831 0.206447
H25   H     H_    0.658910 0.943566 0.752485 0.211271
H26   H     H_    0.635064 0.005117 0.665687 0.263452
C71   C     C_3   0.870911 0.510231 0.243217 -0.764392
H27   H     H_    0.833646 0.472083 0.212257 0.210805
H28   H     H_    0.864858 0.495598 0.333090 0.261096
H29   H     H_    0.844884 0.562342 0.249020 0.209614
C72   C     C_3   0.129348 0.493809 0.760538 -0.770306
H30   H     H_    0.136408 0.510076 0.671220 0.263757
H31   H     H_    0.165860 0.530059 0.796885 0.192796
H32   H     H_    0.156556 0.442303 0.749900 0.209236
C73   C     C_3   0.585529 0.220175 0.321852 -0.802698
H33   H     H_    0.583294 0.270260 0.276240 0.250157
H34   H     H_    0.602384 0.180382 0.253313 0.237623
H35   H     H_    0.524908 0.209126 0.377738 0.219055
C74   C     C_3   0.250763 0.899612 0.728517 -0.829006
H36   H     H_    0.249960 0.950358 0.684005 0.209651
H37   H     H_    0.192071 0.893971 0.792612 0.271105
H38   H     H_    0.296130 0.897321 0.777952 0.239738
C75   C     C_3   0.388878 0.216440 0.703566 -0.802072
H39   H     H_    0.406957 0.271857 0.700899 0.222795
H40   H     H_    0.358263 0.203188 0.795216 0.238075
H41   H     H_    0.444661 0.186807 0.674787 0.237865
C76   C     C_3   0.639360 0.809612 0.260703 -0.772426
H42   H     H_    0.658476 0.859145 0.213579 0.229564
H43   H     H_    0.654803 0.767045 0.196750 0.257005
H44   H     H_    0.573790 0.808064 0.295075 0.233005
C77   C     C_3   0.252293 0.598211 0.273802 -0.866633
H45   H     H_    0.312035 0.601812 0.211875 0.266485
H46   H     H_    0.249174 0.546374 0.316181 0.220884
H47   H     H_    0.208709 0.605581 0.222137 0.238396
C78   C     C_3   0.912245 0.280687 0.679372 -0.788928
H48   H     H_    0.915508 0.229390 0.720931 0.257742
H49   H     H_    0.972040 0.291563 0.620687 0.223450
H50   H     H_    0.897825 0.319723 0.749658 0.229165
C79   C     C_3   0.864628 0.692921 0.736970 -0.769680
H51   H     H_    0.850828 0.736287 0.799613 0.256840
H52   H     H_    0.844598 0.644175 0.785720 0.227897
H53   H     H_    0.930120 0.692972 0.701310 0.232735
C80   C     C_3   0.100155 0.286543 0.297538 -0.788970
H54   H     H_    0.103814 0.237682 0.247817 0.252057
H55   H     H_    0.037824 0.291299 0.350971 0.234513
H56   H     H_    0.114185 0.329729 0.233774 0.231013
O17   O     O_3   0.799735 0.171253 0.692811 -0.587235
C81   C     C_3   0.744720 0.185269 0.800860 0.036518
H57   H     H_    0.683460 0.173857 0.795322 0.149749
H58   H     H_    0.747655 0.240257 0.828253 0.145313
C82   C     C_3   0.762689 0.139154 0.895142 -0.781319
H59   H     H_    0.821371 0.153222 0.907962 0.245318
H60   H     H_    0.716465 0.146080 0.978617 0.205004
H61   H     H_    0.763817 0.083928 0.869622 0.249241
O18   O     O_3   0.362820 0.705946 0.269396 -0.587965
C83   C     C_3   0.348857 0.749956 0.181323 0.039032
H62   H     H_    0.327421 0.801778 0.216630 0.135420
H63   H     H_    0.304264 0.726458 0.141334 0.156303
C84   C     C_3   0.426046 0.760296 0.086594 -0.796704
H64   H     H_    0.449383 0.709322 0.050301 0.247378
H65   H     H_    0.415620 0.793198 0.014962 0.206563
H66   H     H_    0.470772 0.786136 0.123313 0.251361
O19   O     O_3   0.230651 0.191109 0.267561 -0.592862
C85   C     C_3   0.287519 0.225170 0.176642 0.056668
H67   H     H_    0.334510 0.251952 0.208118 0.135668
H68   H     H_    0.257662 0.264181 0.133621 0.151872
C86   C     C_3   0.328574 0.172137 0.086887 -0.804308
H69   H     H_    0.284232 0.137784 0.063681 0.260123
H70   H     H_    0.363903 0.199188 0.007031 0.203737
H71   H     H_    0.369290 0.139982 0.122764 0.240373
O20   O     O_3   0.732653 0.781494 0.757223 -0.600573
C87   C     C_3   0.661916 0.746249 0.816754 0.041638
H72   H     H_    0.649918 0.697206 0.774752 0.131770
H73   H     H_    0.610825 0.781357 0.821764 0.158024
C88   C     C_3   0.665007 0.728260 0.940281 -0.801987
H74   H     H_    0.676564 0.775607 0.985392 0.253465
H75   H     H_    0.607595 0.705199 0.989942 0.212086
H76   H     H_    0.712815 0.690136 0.937971 0.244969
O21   O     O_3   0.149312 0.783250 0.745654 -0.601653
C89   C     C_3   0.163087 0.728343 0.818133 0.061470
H77   H     H_    0.197607 0.684402 0.769164 0.132681
H78   H     H_    0.104583 0.706446 0.866091 0.172502
C90   C     C_3   0.204165 0.754902 0.907663 -0.852553
H79   H     H_    0.170362 0.798786 0.956701 0.256473
H80   H     H_    0.207472 0.712533 0.970201 0.207202
H81   H     H_    0.265404 0.772375 0.863631 0.245521
O22   O     O_3   0.685279 0.337346 0.328795 -0.585295
C91   C     C_3   0.629574 0.384309 0.395100 0.023165
H82   H     H_    0.647494 0.402086 0.473254 0.139336
H83   H     H_    0.569532 0.360143 0.424138 0.150967
C92   C     C_3   0.624560 0.447687 0.320146 -0.776220
H84   H     H_    0.606211 0.431850 0.241610 0.248292
H85   H     H_    0.580310 0.484663 0.370880 0.206608
H86   H     H_    0.683182 0.474042 0.292396 0.243434
O23   O     O_3   0.772430 0.722607 0.240927 -0.603185
C93   C     C_3   0.842614 0.759258 0.183324 0.043566
H87   H     H_    0.894274 0.724715 0.177479 0.155274
H88   H     H_    0.853598 0.807827 0.227475 0.135989
C94   C     C_3   0.839714 0.778829 0.060285 -0.795190
H89   H     H_    0.791630 0.816849 0.063694 0.243422
H90   H     H_    0.897039 0.802590 0.011811 0.215674
H91   H     H_    0.828709 0.732100 0.013228 0.252647
O24   O     O_3   0.237065 0.279687 0.752805 -0.596130
C95   C     C_3   0.169348 0.239514 0.810463 0.064137
H92   H     H_    0.156666 0.193810 0.760793 0.132915
H93   H     H_    0.115927 0.272713 0.826479 0.152350
C96   C     C_3   0.178857 0.212319 0.926367 -0.803232
H94   H     H_    0.195818 0.255005 0.976630 0.253483
H95   H     H_    0.122214 0.188928 0.978215 0.212059
H96   H     H_    0.225425 0.171895 0.910407 0.235359
C97   C     C_3   0.321093 0.941367 0.044365 -0.901245
H97   H     H_    0.295110 0.918353 0.977606 0.231388
H98   H     H_    0.334758 0.895776 0.092300 0.232216
H99   H     H_    0.275005 0.974727 0.100004 0.245915
C98   C     C_3   0.673903 0.933902 0.958163 -0.859007
H100  H     H_    0.698973 0.909220 0.024998 0.220968
H101  H     H_    0.655401 0.889558 0.912905 0.259280
H102  H     H_    0.722092 0.964637 0.899380 0.241261
C99   C     C_3   0.832441 0.575502 0.041252 -0.859753
H103  H     H_    0.808310 0.601893 0.975022 0.220411
H104  H     H_    0.782454 0.546645 0.100124 0.243902
H105  H     H_    0.854440 0.618027 0.086355 0.257947
C100  C     C_3   0.153086 0.409172 0.957186 -0.818852
H106  H     H_    0.164094 0.371299 0.021590 0.217857
H107  H     H_    0.127796 0.376855 0.899890 0.243561
H108  H     H_    0.210399 0.433416 0.910023 0.245284

loop_
_geom_bond_atom_site_label_1
_geom_bond_atom_site_label_2
_geom_bond_distance
_ccdc_geom_bond_type
C4    C22   1.470089 S    
C6    C28   1.475786 S    
C61   C62   1.408339 A    
C19   C72   1.517584 S    
C74   H36   1.108917 S    
O16   Cu4   1.966105 S    
O2    C2    1.313237 A    
O18   C83   1.412245 S    
O13   Cu4   1.969106 S    
C49   C57   1.395784 A    
C33   C54   1.412782 A    
C34   O18   1.386404 S    
C14   C61   1.431259 A    
C78   H48   1.108820 S    
O14   Cu3   1.969106 S    
C37   C74   1.498924 S    
C13   C62   1.430949 A    
C77   H47   1.107532 S    
C46   H1    1.083570 S    
C51   C59   1.387983 A    
O17   C81   1.414550 S    
C95   H92   1.119510 S    
C45   C53   1.391264 A    
C45   H2    1.084313 S    
C15   C64   1.433273 A    
C90   H81   1.109859 S    
C20   C71   1.512845 S    
C75   H40   1.106171 S    
O11   C3    1.308255 A    
C32   O24   1.382977 S    
C82   H59   1.110564 S    
C91   H83   1.114046 S    
C7    C25   1.476292 S    
C11   N4    1.372170 A    
C97   H97   1.109990 S    
C19   N4    1.391176 A    
C69   H21   1.106831 S    
C96   H96   1.108643 S    
C13   C97   1.516384 S    
C70   H25   1.099312 S    
C92   H86   1.110369 S    
C89   C90   1.526045 S    
C50   C58   1.392307 A    
C83   H62   1.113544 S    
C90   H79   1.110479 S    
C38   C73   1.514332 S    
C46   C54   1.394074 A    
C65   H9    1.108672 S    
C25   C42   1.422164 A    
C97   H99   1.108066 S    
Cu3   N3    2.041754 S    
C29   C58   1.405994 A    
C90   H80   1.110637 S    
C79   H51   1.108770 S    
O22   C91   1.413911 S    
C54   C57   1.410983 A    
C88   H75   1.110119 S    
C96   H94   1.106949 S    
C31   C60   1.408581 A    
C26   C49   1.397122 A    
C9    C66   1.500295 S    
C32   C40   1.397877 A    
C65   H10   1.104100 S    
C33   C41   1.410289 A    
C10   C14   1.418429 A    
C80   H54   1.109753 S    
C51   H8    1.076449 S    
C63   C64   1.409421 A    
C88   H76   1.108982 S    
C23   C48   1.405095 A    
O6    Cu4   1.964234 S    
C42   C77   1.494318 S    
C35   C43   1.414370 A    
C72   H32   1.095172 S    
C53   C58   1.410238 A    
C36   C44   1.405666 A    
O3    C3    1.304837 A    
C15   C99   1.513633 S    
C79   H52   1.104796 S    
C32   C59   1.405275 A    
C55   C60   1.407045 A    
O4    Cu1   1.954502 S    
C40   C75   1.511565 S    
C69   H23   1.077272 S    
O15   C7    1.307983 A    
C89   H77   1.115990 S    
C75   H39   1.110739 S    
O16   C8    1.306096 A    
C36   C55   1.408960 A    
C84   H64   1.110799 S    
C100  H106  1.106216 S    
C12   N3    1.375737 A    
O14   C6    1.307286 A    
C35   O19   1.384488 S    
C20   N3    1.398609 A    
O12   C4    1.303165 A    
C82   H60   1.110637 S    
C20   C64   1.452233 A    
C22   C37   1.421027 A    
C77   H46   1.108731 S    
C52   C60   1.388124 A    
C77   H45   1.108466 S    
C81   H58   1.116675 S    
C94   H90   1.110371 S    
Cu4   N4    2.041756 S    
C67   H17   1.110530 S    
C91   H82   1.113896 S    
C26   C41   1.414889 A    
O13   C5    1.302882 A    
C30   C38   1.412619 A    
C66   H12   1.108519 S    
C85   H67   1.117182 S    
C48   H3    1.082949 S    
C70   H26   1.077735 S    
C27   C44   1.421378 A    
C52   H7    1.076138 S    
C28   C43   1.420336 A    
C34   C42   1.405934 A    
C11   C15   1.416752 A    
O24   C95   1.423467 S    
C86   H69   1.109786 S    
C44   C79   1.511468 S    
C91   C92   1.520842 S    
C68   H20   1.099396 S    
C29   O21   1.388501 S    
C76   H43   1.108385 S    
O4    C4    1.311840 A    
Cu2   N2    2.041756 S    
O3    Cu2   1.954500 S    
C1    C23   1.467200 S    
Cu1   N1    2.041754 S    
C98   H100  1.108443 S    
C11   C68   1.513409 S    
C2    C24   1.470716 S    
C22   C45   1.390433 A    
C81   C82   1.521027 S    
C67   H16   1.104014 S    
C31   O23   1.385713 S    
C34   C53   1.401770 A    
C95   H93   1.108361 S    
Cu3   Cu4   2.717487 S    
C94   H89   1.109121 S    
C12   C67   1.498974 S    
C18   C62   1.455444 A    
O1    Cu1   1.964232 S    
O23   C93   1.419449 S    
C47   H4    1.078204 S    
C17   C61   1.457451 A    
C48   C56   1.396596 A    
C36   O20   1.386041 S    
C79   H53   1.110749 S    
C99   H104  1.108429 S    
C30   O22   1.385330 S    
C19   C63   1.445247 A    
C71   H27   1.110029 S    
C84   H65   1.110350 S    
C23   C40   1.415626 A    
O19   C85   1.414426 S    
C74   H38   1.106824 S    
C35   C56   1.409531 A    
O9    Cu2   1.969106 S    
O9    C1    1.308712 A    
C96   H95   1.110328 S    
C93   H87   1.110807 S    
C10   N1    1.373562 A    
C93   H88   1.118659 S    
C100  H107  1.102646 S    
C18   N1    1.400650 A    
C72   H30   1.079492 S    
C78   H49   1.110411 S    
C17   N2    1.400659 A    
C78   H50   1.108876 S    
C50   H5    1.084147 S    
C47   C55   1.388747 A    
C43   C80   1.512158 S    
C28   C51   1.396322 A    
C87   H73   1.110979 S    
C49   H6    1.083571 S    
C30   C57   1.413724 A    
C89   H78   1.110711 S    
C65   H11   1.101634 S    
C39   C76   1.512922 S    
C95   C96   1.519865 S    
C72   H31   1.110861 S    
C81   H57   1.112588 S    
C99   H103  1.107484 S    
C84   H66   1.111485 S    
C16   C100  1.511872 S    
C18   C69   1.514284 S    
C92   H84   1.110685 S    
O7    Cu4   1.954500 S    
C86   H71   1.109401 S    
O12   Cu2   1.966105 S    
C25   C50   1.393737 A    
O8    Cu3   1.954502 S    
C21   C38   1.417119 A    
C29   C37   1.405536 A    
C85   H68   1.111315 S    
O15   Cu3   1.966103 S    
C21   C46   1.398680 A    
C76   H44   1.110719 S    
C80   H56   1.102273 S    
C82   H61   1.108232 S    
C93   C94   1.521379 S    
C67   H15   1.078922 S    
O1    C1    1.305772 A    
C66   H13   1.100895 S    
O2    Cu2   1.964234 S    
C8    C26   1.464574 S    
C73   H35   1.110399 S    
C87   C88   1.521029 S    
C68   H19   1.109198 S    
C73   H33   1.107978 S    
C98   H101  1.107038 S    
C76   H42   1.106745 S    
O11   Cu1   1.966103 S    
C16   C63   1.420507 A    
C33   O17   1.384852 S    
O20   C87   1.419377 S    
C9    N2    1.371514 A    
C83   H63   1.113580 S    
O10   C2    1.302181 A    
O7    C7    1.310057 A    
C75   H41   1.106114 S    
C94   H91   1.108113 S    
C97   H98   1.102986 S    
C17   C70   1.513370 S    
C88   H74   1.108136 S    
C99   H105  1.106713 S    
C5    C27   1.472919 S    
C27   C52   1.396613 A    
C71   H28   1.080227 S    
C85   C86   1.522063 S    
O5    Cu3   1.964232 S    
C10   C65   1.512270 S    
Cu1   Cu2   2.717487 S    
C98   H102  1.107375 S    
C14   C98   1.515882 S    
O10   Cu1   1.969106 S    
C86   H70   1.110045 S    
C56   C59   1.404603 A    
C31   C39   1.404526 A    
O8    C8    1.305621 A    
C12   C16   1.410975 A    
C80   H55   1.110881 S    
O21   C89   1.418733 S    
O5    C5    1.313645 A    
C100  H108  1.109840 S    
C68   H18   1.105857 S    
C71   H29   1.098320 S    
C74   H37   1.108440 S    
C24   C47   1.397643 A    
C66   H14   1.089930 S    
C24   C39   1.421578 A    
C69   H22   1.104942 S    
C87   H72   1.118557 S    
C70   H24   1.108190 S    
C92   H85   1.110456 S    
C41   C78   1.514316 S    
C3    C21   1.467524 S    
C9    C13   1.414067 A    
C73   H34   1.106843 S    
C83   C84   1.522358 S    
O6    C6    1.310793 A    
