data_mof_unit_pretest_1969.cif
_audit_creation_date              2012-12-10T18:24:23-0500
_audit_creation_method            fapswitch 2.2
_symmetry_space_group_name_H-M    P1
_symmetry_Int_Tables_number       1
_space_group_crystal_system       triclinic
_cell_length_a                    30.454231
_cell_length_b                    30.385709
_cell_length_c                    24.641128
_cell_angle_alpha                 89.859215
_cell_angle_beta                  128.251923
_cell_angle_gamma                 89.973062
_cell_volume                      17906.4031674

loop_
_atom_site_label
_atom_site_type_symbol
_atom_type_description
_atom_site_fract_x
_atom_site_fract_y
_atom_site_fract_z
_atom_type_partial_charge
C1    C     C_R   0.809847 0.810760 0.498836 0.907859
C2    C     C_R   0.534255 0.750265 0.069842 0.281396
C3    C     C_3   0.845211 0.155621 0.500340 0.107014
C4    C     C_3   0.596172 0.594318 0.501195 0.119919
C5    C     C_3   0.404708 0.595399 0.498326 0.087888
C6    C     C_3   0.093759 0.096404 0.500576 0.114162
C7    C     C_3   0.906530 0.096843 0.499068 0.119062
C8    C     C_3   0.659638 0.585217 0.560477 0.370329
C9    C     C_3   0.399225 0.635877 0.455312 0.401888
C10   C     C_3   0.107075 0.133881 0.552047 0.381367
C11   C     C_3   0.876764 0.126617 0.432983 0.382840
C12   C     C_3   0.581228 0.639365 0.515076 -0.549266
C13   C     C_R   0.964205 0.250411 0.930029 0.280754
C14   C     C_3   0.431120 0.610616 0.573220 -0.468645
C15   C     C_3   0.062886 0.116790 0.427137 -0.470737
C16   C     C_3   0.943396 0.126618 0.563984 -0.486498
C17   C     C_R   0.060901 0.939075 0.500286 0.952135
C18   C     C_R   0.939108 0.939139 0.499865 0.962837
C19   C     C_R   0.561438 0.439774 0.500061 0.979847
C20   C     C_R   0.437216 0.441376 0.499843 0.963959
C21   C     C_R   0.439386 0.561134 0.499713 0.830951
C22   C     C_R   0.561556 0.560133 0.500171 0.880532
C23   C     C_R   0.940975 0.062620 0.499710 0.823397
C24   C     C_R   0.034218 0.250375 0.069701 0.280044
C25   C     C_R   0.059605 0.061974 0.500029 0.827804
C26   C     C_R   0.817167 0.749832 0.634664 0.900318
C27   C     C_R   0.183245 0.749670 0.365719 0.917731
C28   C     C_R   0.317851 0.250426 0.634751 0.881004
C29   C     C_R   0.683715 0.249123 0.365731 0.912637
C30   C     C_R   0.610863 0.786883 0.253613 -0.201429
C31   C     C_R   0.388383 0.786838 0.746129 -0.200846
C32   C     C_R   0.107728 0.285461 0.253437 -0.218535
C33   C     C_R   0.887157 0.287381 0.746021 -0.202423
C34   C     C_R   0.575106 0.787080 0.181736 -0.164888
C35   C     C_3   0.901528 0.845673 0.569978 -0.460457
C36   C     C_R   0.423764 0.787072 0.817995 -0.164790
C37   C     C_R   0.072076 0.285760 0.181573 -0.164211
C38   C     C_R   0.922486 0.287647 0.817889 -0.168320
C39   C     C_R   0.572210 0.750237 0.145454 0.089735
C40   C     C_R   0.426617 0.750257 0.854534 0.089412
C41   C     C_R   0.072156 0.250326 0.145282 0.091618
C42   C     C_R   0.926448 0.250399 0.854448 0.089766
C43   C     C_R   0.605865 0.713354 0.181931 -0.167404
C44   C     C_R   0.393275 0.713371 0.818315 -0.166693
C45   C     C_R   0.108665 0.214782 0.181700 -0.167208
C46   C     C_3   0.098308 0.845669 0.430520 -0.436425
C47   C     C_R   0.894219 0.213065 0.818289 -0.165846
C48   C     C_R   0.642291 0.713452 0.253791 -0.200773
C49   C     C_R   0.357217 0.713431 0.746448 -0.199583
C50   C     C_R   0.145037 0.214858 0.253561 -0.194954
C51   C     C_R   0.858147 0.213097 0.746423 -0.200541
C52   C     C_3   0.926727 0.826823 0.403119 0.142495
C53   C     C_3   0.912563 0.857555 0.344799 -0.960156
C54   C     C_3   0.073258 0.825923 0.596793 0.129705
C55   C     C_3   0.087538 0.856119 0.655456 -0.939809
C56   C     C_3   0.510609 0.351462 0.611513 0.146454
C57   C     C_3   0.371298 0.373962 0.564694 -0.444874
C58   C     C_3   0.555963 0.316470 0.642020 -0.859091
C59   C     C_3   0.693071 0.396222 0.689567 0.105405
C60   C     C_3   0.678058 0.433977 0.715926 -0.833688
C61   C     C_3   0.764726 0.924568 0.516267 0.119648
C62   C     C_3   0.764571 0.931138 0.577284 -0.823150
C63   C     C_3   0.231810 0.927907 0.481541 0.116762
C64   C     C_3   0.231131 0.935756 0.420071 -0.807338
C65   C     C_3   0.208327 0.384359 0.370983 0.119311
C66   C     C_3   0.164169 0.402643 0.375397 -0.792946
C67   C     C_3   0.618264 0.361944 0.334534 0.070789
C68   C     C_3   0.601407 0.324291 0.484305 -0.417266
C69   C     C_3   0.569070 0.359045 0.257983 -0.809650
C70   C     C_3   0.773490 0.971266 0.389332 0.066705
C71   C     C_3   0.758043 0.999778 0.328935 -0.769529
C72   C     C_3   0.225774 0.971101 0.611199 0.075370
C73   C     C_3   0.246634 0.994062 0.678040 -0.787304
C74   C     C_3   0.299114 0.442732 0.324091 0.119460
C75   C     C_3   0.294109 0.437256 0.259158 -0.819629
C76   C     C_3   0.618578 0.477494 0.398861 0.123550
C77   C     C_3   0.667640 0.504711 0.416007 -0.848432
C78   C     C_3   0.786232 0.829607 0.720079 0.123902
C79   C     C_3   0.935783 0.884099 0.572851 0.312664
C80   C     C_3   0.727053 0.847903 0.671891 -0.819699
C81   C     C_3   0.245124 0.789042 0.284279 0.119680
C82   C     C_3   0.308526 0.790867 0.337058 -0.824657
C83   C     C_3   0.344374 0.355375 0.707811 0.101102
C84   C     C_3   0.301092 0.390567 0.661543 -0.794177
C85   C     C_3   0.749460 0.279800 0.284195 0.119397
C86   C     C_3   0.812927 0.278350 0.336290 -0.843440
C87   C     C_3   0.723426 0.527153 0.616814 0.119643
C88   C     C_3   0.758239 0.499308 0.604819 -0.844938
C89   C     C_3   0.402751 0.632774 0.362417 0.157635
C90   C     C_3   0.064378 0.884376 0.427504 0.295443
C91   C     C_3   0.399888 0.681443 0.344948 -0.942323
C92   C     C_3   0.121621 0.140335 0.656357 0.105676
C93   C     C_3   0.157078 0.123690 0.730476 -0.803778
C94   C     C_3   0.836659 0.119523 0.316572 0.108619
C95   C     C_3   0.793496 0.093996 0.251165 -0.821199
C96   C     C_3   0.987236 0.903852 0.690012 0.125780
C97   C     C_3   0.033232 0.938353 0.725190 -0.817744
C98   C     C_3   0.007689 0.908434 0.312676 0.120140
C99   C     C_3   0.008096 0.937037 0.262299 -0.807489
C100  C     C_3   0.404497 0.466995 0.630406 0.108125
C101  C     C_3   0.404788 0.412043 0.564449 0.267406
C102  C     C_3   0.367633 0.502708 0.626556 -0.850492
C103  C     C_3   0.475201 0.328899 0.394037 0.107351
C104  C     C_3   0.416398 0.342301 0.332094 -0.798038
C105  C     C_R   0.190186 0.810737 0.501253 0.905074
C106  C     C_3   0.563239 0.360671 0.478385 0.262828
C107  C     C_3   0.850632 0.834447 0.443507 -0.607120
C108  C     C_3   0.149804 0.834258 0.557143 -0.606853
C109  C     C_3   0.390301 0.324584 0.498849 -0.572261
C110  C     C_3   0.689646 0.367781 0.567671 -0.598825
C111  C     C_3   0.815068 0.891701 0.483780 0.307567
C112  C     C_3   0.184708 0.891598 0.515959 0.312680
C113  C     C_3   0.304814 0.374971 0.433283 0.284601
C114  C     C_3   0.634882 0.379210 0.439101 0.261308
C115  C     C_3   0.843334 0.845278 0.498812 -0.020916
C116  C     C_R   0.310420 0.310725 0.499668 0.899459
C117  C     C_3   0.156707 0.845197 0.501443 -0.026855
C118  C     C_3   0.343610 0.345415 0.499014 -0.053001
C119  C     C_3   0.653801 0.344717 0.496683 -0.027016
C120  C     C_3   0.903950 0.905360 0.499089 -0.107006
C121  C     C_3   0.096139 0.905266 0.501306 -0.098812
C122  C     C_3   0.402648 0.407552 0.499409 -0.145561
C123  C     C_3   0.595092 0.405445 0.499099 -0.115452
C124  C     C_3   0.888305 0.869020 0.444759 0.309405
C125  C     C_3   0.111745 0.868667 0.555591 0.314644
C126  C     C_3   0.423774 0.361333 0.496586 0.253933
C127  C     C_R   0.688224 0.310583 0.497641 0.917283
C128  C     C_3   0.653589 0.400787 0.572070 0.318265
C129  C     C_3   0.848442 0.926924 0.476988 0.172210
C130  C     C_3   0.151709 0.926693 0.523612 0.168040
C131  C     C_3   0.339525 0.412315 0.433335 0.210846
C132  C     C_3   0.603065 0.417115 0.443561 0.200099
C133  C     C_R   0.682681 0.750051 0.365472 0.851769
C134  C     C_R   0.317224 0.749999 0.634518 0.852912
C135  C     C_R   0.182621 0.250025 0.365426 0.840001
C136  C     C_R   0.817185 0.250030 0.634502 0.856861
C137  C     C_R   0.838011 0.767382 0.747822 0.464905
C138  C     C_R   0.644802 0.750138 0.290001 -0.027085
C139  C     C_R   0.169097 0.750348 0.255119 0.460154
C140  C     C_R   0.355732 0.285790 0.748153 0.476186
C141  C     C_R   0.670392 0.246635 0.255672 0.458747
C142  C     C_R   0.874501 0.765311 0.819930 -0.277747
C143  C     C_R   0.132899 0.748536 0.182887 -0.273465
C144  C     C_R   0.391970 0.284487 0.820275 -0.268761
C145  C     C_R   0.634377 0.245115 0.183311 -0.279212
C146  C     C_R   0.928403 0.747777 0.855245 0.029531
C147  C     C_R   0.074811 0.747013 0.146353 0.029235
C148  C     C_R   0.431655 0.250740 0.855577 0.024643
C149  C     C_R   0.354775 0.750081 0.709989 -0.027547
C150  C     C_R   0.576277 0.246911 0.146340 0.034796
C151  C     C_R   0.945435 0.731333 0.817837 -0.168414
C152  C     C_R   0.053088 0.746103 0.182609 -0.159719
C153  C     C_R   0.434737 0.217871 0.818338 -0.167492
C154  C     C_R   0.554066 0.248103 0.181940 -0.167127
C155  C     C_R   0.908816 0.731921 0.746041 -0.279250
C156  C     C_R   0.088841 0.746569 0.254308 -0.280506
C157  C     C_R   0.397495 0.218001 0.746523 -0.270255
C158  C     C_R   0.589487 0.247638 0.253701 -0.278266
C159  C     C_R   0.854914 0.749665 0.710429 -0.141576
C160  C     C_R   0.144672 0.250134 0.289868 -0.030540
C161  C     C_R   0.146649 0.748830 0.290652 -0.120287
C162  C     C_R   0.357171 0.251446 0.710672 -0.154893
C163  C     C_R   0.647449 0.247712 0.290626 -0.122554
C164  C     C_R   0.036836 0.746458 0.070666 0.310725
C165  C     C_R   0.966543 0.746771 0.930922 0.309923
C166  C     C_R   0.538771 0.247651 0.070781 0.303548
C167  C     C_R   0.469418 0.249719 0.931142 0.305493
C168  C     C_3   0.620927 0.632249 0.431503 -0.426488
C169  C     C_3   0.308827 0.612460 0.462082 -0.382067
C170  C     C_3   0.185325 0.110021 0.522847 -0.392024
C171  C     C_R   0.854668 0.250162 0.709943 -0.029482
C172  C     C_3   0.824983 0.108515 0.499726 -0.385539
C173  C     C_3   0.584529 0.596917 0.430302 -0.365863
C174  C     C_3   0.345749 0.576616 0.464783 -0.384969
C175  C     C_3   0.148870 0.075339 0.522942 -0.395711
C176  C     C_3   0.862250 0.074004 0.500894 -0.396114
C177  C     C_3   0.694902 0.621368 0.559668 -0.462585
C178  C     C_3   0.364583 0.671926 0.457290 -0.391940
C179  C     C_3   0.144508 0.168507 0.552783 -0.435007
C180  C     C_3   0.841555 0.161967 0.435322 -0.425359
C181  C     C_R   0.690151 0.689422 0.501719 0.864368
C182  C     C_R   0.464334 0.750275 0.930145 0.281622
C183  C     C_R   0.309172 0.689339 0.497142 0.874349
C184  C     C_R   0.190049 0.189324 0.501385 0.857411
C185  C     C_R   0.810911 0.189307 0.500560 0.873588
C186  C     C_3   0.616498 0.675627 0.515356 -0.365494
C187  C     C_3   0.393888 0.645080 0.572263 -0.440723
C188  C     C_3   0.099260 0.152260 0.428105 -0.430680
C189  C     C_3   0.906860 0.160708 0.565431 -0.423810
C190  C     C_3   0.656265 0.655501 0.502224 0.121095
C191  C     C_3   0.343180 0.655330 0.496897 0.096917
C192  C     C_3   0.155711 0.155586 0.501420 0.120335
H1    H     H_    0.612405 0.815611 0.280689 0.147693
H2    H     H_    0.140393 0.955129 0.488298 0.141965
H3    H     H_    0.926302 0.842499 0.316496 0.208096
H4    H     H_    0.866706 0.862960 0.307203 0.238326
H5    H     H_    0.106496 0.800633 0.617280 0.124656
H6    H     H_    0.034512 0.807738 0.577681 0.181218
H7    H     H_    0.066084 0.888312 0.634641 0.289227
H8    H     H_    0.074678 0.840365 0.684323 0.214700
H9    H     H_    0.133321 0.861801 0.692569 0.236146
H10   H     H_    0.483485 0.342540 0.625413 0.112970
H11   H     H_    0.531234 0.383297 0.636334 0.169128
H12   H     H_    0.585757 0.324951 0.631901 0.284006
H13   H     H_    0.324296 0.444760 0.437298 0.151474
H14   H     H_    0.579239 0.314232 0.698739 0.205899
H15   H     H_    0.536823 0.284014 0.618483 0.247380
H16   H     H_    0.731820 0.404494 0.696166 0.113643
H17   H     H_    0.703171 0.366916 0.722491 0.160039
H18   H     H_    0.640095 0.425573 0.710686 0.255456
H19   H     H_    0.713191 0.440136 0.771224 0.195271
H20   H     H_    0.670002 0.464402 0.686032 0.246002
H21   H     H_    0.727391 0.904560 0.476988 0.137288
H22   H     H_    0.761794 0.957354 0.494351 0.104368
H23   H     H_    0.800851 0.951589 0.617290 0.254664
H24   H     H_    0.560343 0.420030 0.392656 0.186403
H25   H     H_    0.725393 0.947947 0.559871 0.194545
H26   H     H_    0.767196 0.898749 0.600111 0.256501
H27   H     H_    0.271076 0.909943 0.521827 0.131637
H28   H     H_    0.231288 0.960412 0.501585 0.102135
H29   H     H_    0.192690 0.954060 0.378975 0.255879
H30   H     H_    0.268268 0.955341 0.436427 0.191257
H31   H     H_    0.232081 0.903780 0.399042 0.253360
H32   H     H_    0.202296 0.348178 0.363374 0.142390
H33   H     H_    0.202303 0.399412 0.325679 0.118503
H34   H     H_    0.168862 0.438873 0.382607 0.247711
H35   H     H_    0.809040 0.833835 0.391384 0.154662
H36   H     H_    0.121829 0.395223 0.327011 0.189135
H37   H     H_    0.168716 0.387382 0.419656 0.256105
H38   H     H_    0.647057 0.334143 0.348942 0.165059
H39   H     H_    0.640755 0.393063 0.342553 0.114837
H40   H     H_    0.542687 0.389024 0.241456 0.242813
H41   H     H_    0.584506 0.356360 0.227418 0.209591
H42   H     H_    0.543105 0.329852 0.247785 0.267968
H43   H     H_    0.784919 0.993243 0.432188 0.109932
H44   H     H_    0.735935 0.952089 0.372422 0.131300
H45   H     H_    0.741950 0.978876 0.283203 0.243129
H46   H     H_    0.191492 0.833820 0.609167 0.156338
H47   H     H_    0.725257 0.023900 0.315540 0.202637
H48   H     H_    0.795407 0.017844 0.342883 0.295022
H49   H     H_    0.210844 0.996548 0.570839 0.114150
H50   H     H_    0.261725 0.953381 0.620363 0.124714
H51   H     H_    0.265578 0.969612 0.720671 0.248726
H52   H     H_    0.278658 0.018931 0.691527 0.197822
H53   H     H_    0.211390 0.010762 0.672025 0.270016
H54   H     H_    0.317239 0.475771 0.346219 0.154976
H55   H     H_    0.256621 0.440879 0.309585 0.124991
H56   H     H_    0.276268 0.404471 0.235910 0.252883
H57   H     H_    0.370927 0.303385 0.452354 0.173772
H58   H     H_    0.266275 0.463203 0.221003 0.202727
H59   H     H_    0.335979 0.440167 0.272030 0.252904
H60   H     H_    0.581141 0.498584 0.375605 0.143036
H61   H     H_    0.608258 0.453568 0.358506 0.122235
H62   H     H_    0.704665 0.483142 0.438290 0.243414
H63   H     H_    0.656581 0.520410 0.368236 0.196864
H64   H     H_    0.678456 0.530876 0.453598 0.299246
H65   H     H_    0.810901 0.844705 0.705309 0.133719
H66   H     H_    0.804748 0.839328 0.773860 0.129235
H67   H     H_    0.701397 0.834131 0.685783 0.253641
H68   H     H_    0.725112 0.385525 0.575408 0.162824
H69   H     H_    0.728020 0.884309 0.676350 0.196611
H70   H     H_    0.707635 0.839115 0.617578 0.256133
H71   H     H_    0.227696 0.817619 0.293807 0.137331
H72   H     H_    0.233339 0.791964 0.231726 0.132836
H73   H     H_    0.327509 0.763412 0.328294 0.253268
H74   H     H_    0.323935 0.822565 0.332138 0.197503
H75   H     H_    0.321505 0.788100 0.390158 0.262435
H76   H     H_    0.363638 0.344521 0.683567 0.111306
H77   H     H_    0.377183 0.370186 0.759171 0.128779
H78   H     H_    0.280939 0.402353 0.684019 0.251303
H79   H     H_    0.863269 0.885000 0.393004 0.187787
H80   H     H_    0.321581 0.418814 0.656734 0.197189
H81   H     H_    0.268625 0.376921 0.609286 0.266470
H82   H     H_    0.734816 0.310490 0.293372 0.133873
H83   H     H_    0.737479 0.280801 0.231426 0.131096
H84   H     H_    0.829062 0.248321 0.328255 0.240247
H85   H     H_    0.830881 0.307806 0.329828 0.200678
H86   H     H_    0.826237 0.277966 0.389666 0.263956
H87   H     H_    0.723474 0.606268 0.551090 0.206689
H88   H     H_    0.328434 0.682076 0.403925 0.220355
H89   H     H_    0.185073 0.171753 0.605646 0.184056
H90   H     H_    0.136491 0.884443 0.607289 0.187349
H91   H     H_    0.797009 0.160318 0.388183 0.206552
H92   H     H_    0.710243 0.506599 0.641720 0.139080
H93   H     H_    0.751166 0.553807 0.653487 0.115052
H94   H     H_    0.795177 0.485799 0.654821 0.197503
H95   H     H_    0.733365 0.471534 0.569752 0.287654
H96   H     H_    0.772885 0.519845 0.581528 0.247744
H97   H     H_    0.384622 0.613581 0.314571 0.166010
H98   H     H_    0.446734 0.621455 0.400147 0.121465
H99   H     H_    0.422490 0.686929 0.323463 0.223467
H100  H     H_    0.355596 0.691652 0.305873 0.276833
H101  H     H_    0.411473 0.359145 0.443915 0.183823
H102  H     H_    0.419584 0.701992 0.391873 0.242241
H103  H     H_    0.076878 0.135125 0.632598 0.131493
H104  H     H_    0.129725 0.176159 0.657093 0.129175
H105  H     H_    0.146199 0.141969 0.759680 0.200823
H106  H     H_    0.149279 0.088069 0.731255 0.252752
H107  H     H_    0.202107 0.128697 0.755840 0.253875
H108  H     H_    0.877495 0.117306 0.326284 0.135261
H109  H     H_    0.823038 0.154574 0.308112 0.142020
H110  H     H_    0.789300 0.108518 0.206756 0.205015
H111  H     H_    0.806716 0.059075 0.257419 0.249855
H112  H     H_    0.386870 0.815549 0.718861 0.148273
H113  H     H_    0.673923 0.433754 0.586797 0.136783
H114  H     H_    0.752293 0.095424 0.240377 0.260085
H115  H     H_    0.721590 0.637935 0.610875 0.123679
H116  H     H_    0.391273 0.701590 0.482955 0.141570
H117  H     H_    0.123206 0.201065 0.538770 0.147165
H118  H     H_    0.857284 0.195096 0.435632 0.150784
H119  H     H_    0.006169 0.870901 0.696753 0.098946
H120  H     H_    0.968551 0.902527 0.716947 0.160609
H121  H     H_    0.015477 0.971101 0.721881 0.254426
H122  H     H_    0.065543 0.929518 0.780437 0.198912
H123  H     H_    0.053174 0.940186 0.699861 0.254078
H124  H     H_    0.860455 0.777630 0.848082 0.158942
H125  H     H_    0.970241 0.917165 0.308458 0.148350
H126  H     H_    0.004879 0.873367 0.297708 0.117105
H127  H     H_    0.045076 0.928878 0.265229 0.259857
H128  H     H_    0.969528 0.931175 0.208805 0.198233
H129  H     H_    0.009854 0.972338 0.275113 0.252116
H130  H     H_    0.447100 0.480594 0.656357 0.144326
H131  H     H_    0.407062 0.439495 0.662302 0.118341
H132  H     H_    0.324130 0.490510 0.597701 0.265162
H133  H     H_    0.383818 0.512004 0.679550 0.204551
H134  H     H_    0.367597 0.532346 0.600236 0.244937
H135  H     H_    0.150312 0.748186 0.155654 0.156827
H136  H     H_    0.474717 0.320617 0.437561 0.157030
H137  H     H_    0.486627 0.298816 0.379797 0.140596
H138  H     H_    0.414547 0.346803 0.285970 0.253218
H139  H     H_    0.386147 0.316408 0.321054 0.199636
H140  H     H_    0.404547 0.373747 0.342817 0.288440
H141  H     H_    0.389645 0.310434 0.848503 0.162555
H142  H     H_    0.651752 0.242786 0.156132 0.151757
H143  H     H_    0.986815 0.717501 0.843964 0.157945
H144  H     H_    0.008465 0.744623 0.155670 0.157375
H145  H     H_    0.465083 0.191468 0.844757 0.156917
H146  H     H_    0.509301 0.248923 0.154296 0.158610
H147  H     H_    0.549312 0.815825 0.154609 0.145311
H148  H     H_    0.106625 0.312988 0.280390 0.149109
H149  H     H_    0.449327 0.815817 0.844919 0.145326
H150  H     H_    0.043960 0.313399 0.154448 0.143976
H151  H     H_    0.947194 0.316738 0.844814 0.145244
H152  H     H_    0.922897 0.718722 0.718360 0.175071
H153  H     H_    0.071363 0.745698 0.281500 0.161461
H154  H     H_    0.400000 0.191588 0.719101 0.178221
H155  H     H_    0.571695 0.248369 0.280521 0.173043
H156  H     H_    0.648473 0.616720 0.421581 0.182024
H157  H     H_    0.272360 0.619319 0.407359 0.181900
H158  H     H_    0.226533 0.111972 0.575256 0.173868
H159  H     H_    0.884779 0.316410 0.718689 0.150646
H160  H     H_    0.780936 0.103853 0.452593 0.185569
H161  H     H_    0.593809 0.656570 0.389360 0.164043
H162  H     H_    0.292395 0.599952 0.488880 0.188594
H163  H     H_    0.193135 0.099633 0.486186 0.185165
H164  H     H_    0.826339 0.103549 0.545526 0.177114
H165  H     H_    0.539730 0.604861 0.388367 0.170544
H166  H     H_    0.348837 0.547821 0.494885 0.178636
H167  H     H_    0.139776 0.048120 0.487140 0.149973
H168  H     H_    0.882720 0.053051 0.547976 0.168762
H169  H     H_    0.593304 0.564841 0.417996 0.197145
H170  H     H_    0.772101 0.888669 0.433625 0.055410
H171  H     H_    0.325777 0.564646 0.411526 0.204959
H172  H     H_    0.172111 0.061283 0.575711 0.216652
H173  H     H_    0.836160 0.052366 0.455362 0.202761
H174  H     H_    0.641315 0.692886 0.566007 0.184721
H175  H     H_    0.418540 0.675493 0.598714 0.177961
H176  H     H_    0.076914 0.184439 0.412080 0.180323
H177  H     H_    0.922450 0.194335 0.567791 0.185903
H178  H     H_    0.587986 0.700256 0.474537 0.192839
H179  H     H_    0.379528 0.632407 0.601356 0.182515
H180  H     H_    0.106354 0.143792 0.390128 0.175625
H181  H     H_    0.228005 0.888376 0.565584 0.058703
H182  H     H_    0.910370 0.155996 0.612815 0.172360
H183  H     H_    0.536211 0.646924 0.474612 0.178194
H184  H     H_    0.436551 0.582091 0.605336 0.205115
H185  H     H_    0.053420 0.090869 0.389402 0.210040
H186  H     H_    0.966068 0.106644 0.612255 0.212863
H187  H     H_    0.604503 0.684645 0.154963 0.144995
H188  H     H_    0.394619 0.684679 0.845484 0.145501
H189  H     H_    0.109571 0.187184 0.154670 0.145269
H190  H     H_    0.896440 0.184046 0.845518 0.145201
H191  H     H_    0.589030 0.638932 0.565589 0.175740
H192  H     H_    0.288133 0.353308 0.387566 0.068903
H193  H     H_    0.473246 0.624931 0.598001 0.174669
H194  H     H_    0.022400 0.131557 0.409137 0.160486
H195  H     H_    0.975267 0.143805 0.563239 0.142733
H196  H     H_    0.666414 0.587387 0.610519 0.061080
H197  H     H_    0.442195 0.649145 0.480973 0.015507
H198  H     H_    0.066247 0.149524 0.531986 -0.006802
H199  H     H_    0.910406 0.143188 0.434672 0.000191
H200  H     H_    0.668007 0.684681 0.280997 0.150833
H201  H     H_    0.331733 0.684661 0.719438 0.151636
H202  H     H_    0.173021 0.187144 0.280654 0.152751
H203  H     H_    0.673467 0.393176 0.449667 0.102361
H204  H     H_    0.833509 0.183987 0.719418 0.150365
H205  H     H_    0.923802 0.814119 0.578958 0.146561
H206  H     H_    0.076092 0.814250 0.422210 0.142330
H207  H     H_    0.399539 0.353284 0.611681 0.099036
H208  H     H_    0.614569 0.302069 0.528067 0.162280
H209  H     H_    0.897519 0.848446 0.611791 0.206596
H210  H     H_    0.101868 0.848210 0.388276 0.215928
H211  H     H_    0.338845 0.387401 0.567678 0.246062
H212  H     H_    0.578614 0.303765 0.436959 0.213828
H213  H     H_    0.975977 0.870881 0.587952 0.129954
H214  H     H_    0.859907 0.954921 0.512816 0.146438
H215  H     H_    0.023966 0.871273 0.411925 0.116137
H216  H     H_    0.448962 0.409636 0.611846 0.067514
H217  H     H_    0.554965 0.353664 0.515705 0.165646
H218  H     H_    0.869395 0.801119 0.453372 0.226145
H219  H     H_    0.131540 0.800841 0.547860 0.225562
H220  H     H_    0.417289 0.302283 0.543811 0.220747
H221  H     H_    0.708236 0.342813 0.609785 0.204411
H222  H     H_    0.893388 0.801702 0.382410 0.123263
H223  H     H_    0.965407 0.808485 0.422063 0.180863
H224  H     H_    0.933353 0.889846 0.365898 0.286685
N1    N     N_R   0.516642 0.711795 0.034524 -0.181834
N2    N     N_R   0.981406 0.753901 0.035296 -0.186049
N3    N     N_R   0.520301 0.230126 0.966391 -0.183984
N4    N     N_R   0.487808 0.267067 0.035501 -0.182309
N5    N     N_R   0.056512 0.739024 0.034920 -0.181563
N6    N     N_R   0.946922 0.754121 0.966709 -0.182780
N7    N     N_R   0.554524 0.229300 0.035080 -0.179522
N8    N     N_R   0.453805 0.268227 0.966876 -0.176772
N9    N     N_R   0.482129 0.711801 0.965869 -0.181662
N10   N     N_R   0.018702 0.211971 0.034377 -0.180654
N11   N     N_R   0.984128 0.211980 0.965724 -0.180551
N12   N     N_R   0.482073 0.788749 0.965459 -0.180682
N13   N     N_R   0.516287 0.788744 0.034122 -0.180657
N14   N     N_R   0.979866 0.288830 0.965348 -0.182302
N15   N     N_R   0.014118 0.288803 0.034013 -0.181942
N16   N     N_R   0.021956 0.739099 0.966246 -0.185133
O1    O     O_R   0.822450 0.770150 0.500010 -0.633926
O2    O     O_R   0.517630 0.546310 0.442550 -0.654260
O3    O     O_R   0.982370 0.046310 0.557450 -0.638266
O4    O     O_R   0.017630 0.046310 0.442550 -0.646528
O5    O     O_R   0.424900 0.546280 0.442440 -0.616574
O6    O     O_R   0.575100 0.546280 0.557560 -0.643956
O7    O     O_R   0.924900 0.046280 0.442440 -0.583547
O8    O     O_R   0.075100 0.046280 0.557560 -0.576345
O9    O     O_R   0.770150 0.822430 0.500030 -0.611767
O10   O     O_R   0.229850 0.822430 0.499970 -0.607296
O11   O     O_R   0.270150 0.322430 0.500030 -0.591920
O12   O     O_R   0.177550 0.770150 0.499990 -0.635043
O13   O     O_R   0.729850 0.322430 0.499970 -0.652099
O14   O     O_R   0.725220 0.723850 0.398140 -0.624184
O15   O     O_R   0.274780 0.723850 0.601860 -0.623959
O16   O     O_R   0.225220 0.223850 0.398140 -0.623231
O17   O     O_R   0.774780 0.223850 0.601860 -0.624324
O18   O     O_R   0.672910 0.776140 0.398150 -0.632950
O19   O     O_R   0.327090 0.776140 0.601850 -0.631925
O20   O     O_R   0.172910 0.276140 0.398150 -0.631001
O21   O     O_R   0.827090 0.276140 0.601850 -0.623935
O22   O     O_R   0.729840 0.677550 0.499990 -0.630990
O23   O     O_R   0.322450 0.270150 0.500010 -0.636944
O24   O     O_R   0.270160 0.677550 0.500010 -0.631043
O25   O     O_R   0.229840 0.177550 0.499990 -0.631840
O26   O     O_R   0.770160 0.177550 0.500010 -0.633711
O27   O     O_R   0.677530 0.729830 0.500000 -0.627238
O28   O     O_R   0.322470 0.729830 0.500000 -0.627773
O29   O     O_R   0.177530 0.229830 0.500000 -0.627941
O30   O     O_R   0.822470 0.229830 0.500000 -0.624741
O31   O     O_R   0.827070 0.723850 0.601870 -0.633605
O32   O     O_R   0.172930 0.723850 0.398130 -0.629112
O33   O     O_R   0.327070 0.223850 0.601870 -0.634273
O34   O     O_R   0.677550 0.270150 0.499990 -0.627483
O35   O     O_R   0.672930 0.223850 0.398130 -0.621491
O36   O     O_R   0.774770 0.776130 0.601880 -0.575304
O37   O     O_R   0.225230 0.776130 0.398120 -0.598274
O38   O     O_R   0.274770 0.276130 0.601880 -0.567579
O39   O     O_R   0.725230 0.276130 0.398120 -0.618685
O40   O     O_R   0.075080 0.953700 0.557570 -0.604672
O41   O     O_R   0.924920 0.953700 0.442430 -0.603352
O42   O     O_R   0.575080 0.453700 0.557570 -0.595376
O43   O     O_R   0.424920 0.453700 0.442430 -0.594929
O44   O     O_3   0.937548 0.849823 0.460425 -0.613707
O45   O     O_R   0.017620 0.953670 0.442560 -0.624122
O46   O     O_3   0.062511 0.849385 0.539679 -0.612757
O47   O     O_3   0.482865 0.354830 0.539756 -0.633143
O48   O     O_3   0.646580 0.385611 0.620901 -0.611549
O49   O     O_3   0.814857 0.903186 0.539605 -0.587707
O50   O     O_3   0.184142 0.903228 0.459537 -0.578660
O51   O     O_3   0.261909 0.394355 0.432596 -0.598697
O52   O     O_3   0.598114 0.359225 0.372952 -0.617156
O53   O     O_3   0.817303 0.942477 0.407705 -0.638380
O54   O     O_3   0.183182 0.941210 0.593302 -0.638246
O55   O     O_3   0.333943 0.409102 0.371645 -0.644721
O56   O     O_R   0.982380 0.953670 0.557440 -0.612753
O57   O     O_3   0.632463 0.457339 0.459727 -0.635385
O58   O     O_3   0.784266 0.783300 0.713920 -0.600346
O59   O     O_3   0.226432 0.748590 0.291555 -0.616345
O60   O     O_3   0.317972 0.320118 0.714813 -0.590902
O61   O     O_3   0.727585 0.241884 0.292849 -0.622343
O62   O     O_3   0.675202 0.543082 0.552656 -0.597355
O63   O     O_3   0.370847 0.623751 0.385049 -0.606199
O64   O     O_3   0.135651 0.116572 0.619834 -0.592766
O65   O     O_3   0.841057 0.100927 0.372362 -0.599970
O66   O     O_3   0.944822 0.916448 0.620423 -0.584684
O67   O     O_R   0.517620 0.453670 0.442560 -0.606434
O68   O     O_3   0.056726 0.916658 0.380428 -0.577496
O69   O     O_3   0.381658 0.453195 0.562800 -0.611966
O70   O     O_3   0.512305 0.363636 0.409734 -0.585567
O71   O     O_R   0.482380 0.453670 0.557440 -0.637551
O72   O     O_R   0.482370 0.546310 0.557450 -0.639281
Zn1   Zn    Zn3+2 0.784920 0.715080 0.500000 0.925554
Zn2   Zn    Zn3+2 0.461640 0.500010 0.423200 0.949503
Zn3   Zn    Zn3+2 0.038360 0.000010 0.576800 0.964809
Zn4   Zn    Zn3+2 0.961640 0.000010 0.423200 0.959469
Zn5   Zn    Zn3+2 0.215080 0.715080 0.500000 0.931900
Zn6   Zn    Zn3+2 0.284920 0.215080 0.500000 0.923343
Zn7   Zn    Zn3+2 0.715080 0.215080 0.500000 0.935924
Zn8   Zn    Zn3+2 0.715070 0.784900 0.500020 0.940019
Zn9   Zn    Zn3+2 0.284930 0.784900 0.499980 0.934820
Zn10  Zn    Zn3+2 0.215070 0.284900 0.500020 0.953880
Zn11  Zn    Zn3+2 0.784930 0.284900 0.499980 0.922182
Zn12  Zn    Zn3+2 0.538360 0.500010 0.576800 0.923794

loop_
_geom_bond_atom_site_label_1
_geom_bond_atom_site_label_2
_ccdc_geom_bond_type
C105  O10   A    
C134  O15   A    
C97   H121  S    
C124  H79   S    
C23   O7    A    
C30   C138  A    
C11   H199  S    
C12   H183  S    
C5    C174  S    
C29   C163  S    
C127  O34   A    
C166  N4    A    
O11   Zn10  S    
C19   O42   A    
O19   Zn9   S    
C170  H163  S    
N5    N16   A    
C164  N2    A    
C108  H219  S    
C109  H57   S    
C98   H125  S    
C154  C158  A    
O5    Zn2   S    
C88   H96   S    
C68   C119  S    
C49   H201  S    
C20   O43   A    
C6    C25   S    
C73   H53   S    
O10   Zn9   S    
C168  C190  S    
C85   H82   S    
C187  H179  S    
C86   H85   S    
C63   H27   S    
C109  H220  S    
C142  C146  A    
C169  H162  S    
C53   H224  S    
C184  O25   A    
C151  H143  S    
C185  O30   A    
C48   H200  S    
C55   H7    S    
C152  C156  A    
C56   O47   S    
C169  C174  S    
C59   H16   S    
C35   C115  S    
C82   H75   S    
C132  H24   S    
C151  C155  A    
C36   H149  S    
C4    C12   S    
C101  H216  S    
C141  C145  A    
C58   H12   S    
C59   C60   S    
C22   O6    A    
C24   C41   S    
C93   H105  S    
C77   H64   S    
C107  C124  S    
C13   C42   S    
C109  C118  S    
C85   O61   S    
O29   Zn10  S    
C114  O52   S    
C13   N11   A    
C69   H40   S    
C27   O37   A    
O13   Zn11  S    
C50   C160  A    
C137  O58   S    
C24   N15   A    
C167  N3    A    
O14   Zn1   S    
C120  C129  S    
C64   H31   S    
C177  H115  S    
C102  H132  S    
C186  C190  S    
C178  H116  S    
C10   O64   S    
C156  H153  S    
O33   Zn6   S    
C181  C190  S    
C136  C171  S    
C91   H99   S    
C79   C120  S    
C65   H33   S    
C46   H206  S    
O56   Zn3   S    
C180  H91   S    
C99   H127  S    
C54   H5    S    
C46   C90   S    
C105  O12   A    
C173  H169  S    
C143  C147  A    
O16   Zn6   S    
C4    C173  S    
C112  H181  S    
C148  C153  A    
C76   H60   S    
C1    O1    A    
C20   O71   A    
C87   H93   S    
C45   H189  S    
C72   C73   S    
C8    H196  S    
C76   O57   S    
C172  H160  S    
C84   H78   S    
C101  C122  S    
C48   C138  A    
C147  C164  S    
C71   H48   S    
C52   H223  S    
C3    C189  S    
C14   C187  S    
C134  C149  S    
C45   C50   A    
C74   H54   S    
C181  O22   A    
C33   H159  S    
C2    N1    A    
C78   H65   S    
C116  C118  S    
C29   O35   A    
C82   H73   S    
C70   H43   S    
C28   O38   A    
C13   N14   A    
C32   H148  S    
C52   O44   S    
C103  O70   S    
C16   C189  S    
C96   H119  S    
C5    C21   S    
C98   C99   S    
C6    C175  S    
C100  H131  S    
C167  N8    A    
C148  C167  S    
C41   C45   A    
C31   C36   A    
C93   H107  S    
C1    C115  S    
C94   H108  S    
C186  H174  S    
C157  C162  A    
C65   H32   S    
C61   O49   S    
C75   H56   S    
C110  C128  S    
C57   C118  S    
C137  C142  A    
C123  C132  S    
C121  C130  S    
O21   Zn11  S    
C85   C86   S    
C5    C9    S    
C172  H164  S    
C92   H103  S    
C19   C123  S    
C136  O21   A    
O15   Zn5   S    
C35   H205  S    
C10   C179  S    
C134  O19   A    
C90   O68   S    
C166  N7    A    
C78   C80   S    
C30   H1    S    
C34   H147  S    
C140  C162  A    
C150  C166  S    
O3    Zn3   S    
C4    C8    S    
C69   H41   S    
C87   H92   S    
C141  O61   S    
O72   Zn12  S    
C139  C143  A    
C10   H198  S    
C90   H215  S    
C107  H35   S    
C103  H137  S    
C89   C91   S    
C75   H58   S    
C20   C122  S    
C145  C150  A    
O24   Zn5   S    
C101  O69   S    
O67   Zn2   S    
C18   O56   A    
C153  C157  A    
C99   H128  S    
C61   H21   S    
C67   O52   S    
C3    C185  S    
C188  H180  S    
C30   C34   A    
C155  C159  A    
C34   C39   A    
C62   H25   S    
C72   H50   S    
C80   H70   S    
C83   O60   S    
C80   H67   S    
C125  O46   S    
C18   O41   A    
C14   H193  S    
N3    N7    A    
C3    C180  S    
C121  C125  S    
C4    C22   S    
C89   O63   S    
C83   C84   S    
O2    Zn2   S    
C22   O2    A    
C7    C176  S    
C128  O48   S    
C50   H202  S    
C64   H30   S    
C12   H191  S    
C32   C37   A    
C21   O5    A    
C158  C163  A    
C89   H97   S    
C157  H154  S    
C146  C165  S    
C156  C161  A    
C81   H71   S    
C8    O62   S    
C97   H122  S    
C90   C121  S    
C54   O46   S    
C169  C191  S    
C131  H13   S    
C104  H139  S    
C129  O53   S    
C122  C131  S    
C52   C53   S    
C35   H209  S    
C79   O66   S    
C129  H214  S    
C53   H4    S    
C16   H186  S    
C54   C55   S    
C95   H111  S    
C100  O69   S    
C108  C117  S    
C133  O18   A    
C179  H117  S    
C110  C119  S    
O23   Zn6   S    
C57   C101  S    
C15   C188  S    
C91   H102  S    
C19   O67   A    
C98   H126  S    
C51   H204  S    
C27   C161  S    
C73   H52   S    
C173  H165  S    
C7    C23   S    
C35   C79   S    
C56   C58   S    
C63   O50   S    
C86   H86   S    
C37   C41   A    
C61   C62   S    
O34   Zn7   S    
C112  O50   S    
C57   H207  S    
C67   H39   S    
C146  C151  A    
C111  O49   S    
C109  C126  S    
C136  O17   A    
C111  H170  S    
C145  H142  S    
O32   Zn5   S    
C66   H36   S    
C33   C38   A    
C98   O68   S    
C112  C130  S    
C28   O33   A    
C86   H84   S    
C59   H17   S    
C119  C127  S    
C185  O26   A    
C87   C88   S    
C100  H130  S    
C142  H124  S    
C62   H23   S    
C77   H63   S    
O9    Zn8   S    
C56   H11   S    
C114  H203  S    
C106  O70   S    
C66   H37   S    
C96   O66   S    
C110  H221  S    
O17   Zn7   S    
C83   H76   S    
O27   Zn8   S    
C184  O29   A    
C139  O59   S    
C112  C117  S    
C31   C149  A    
C3    C172  S    
N10   N11   A    
C58   H14   S    
O25   Zn6   S    
C182  N12   A    
C175  H172  S    
C102  H133  S    
O39   Zn11  S    
C186  H178  S    
O26   Zn7   S    
C15   H185  S    
C8    C177  S    
C111  C129  S    
O43   Zn2   S    
C184  C192  S    
C70   C71   S    
C177  C190  S    
O41   Zn4   S    
C1    O9    A    
C78   O58   S    
N1    N9    A    
C133  C138  S    
C84   H81   S    
C174  H166  S    
C105  C117  S    
C75   H59   S    
O71   Zn12  S    
C40   C182  S    
C170  C175  S    
C91   H100  S    
C107  H218  S    
C17   O45   A    
C59   O48   S    
C137  C159  A    
C60   H20   S    
O8    Zn3   S    
C139  C161  A    
C144  H141  S    
C88   H95   S    
O35   Zn7   S    
C47   C51   A    
C169  H157  S    
C85   H83   S    
C9    H197  S    
C63   H28   S    
C7    C11   S    
C124  O44   S    
O28   Zn9   S    
C99   H129  S    
C55   H8    S    
C182  N9    A    
O45   Zn4   S    
N4    N8    A    
C12   C186  S    
C66   H34   S    
C78   H66   S    
C25   O4    A    
C26   C159  S    
C154  H146  S    
C70   H44   S    
O20   Zn10  S    
C5    C14   S    
C14   H184  S    
C96   H120  S    
C17   C121  S    
C7    C16   S    
C180  H118  S    
C103  H136  S    
C53   H3    S    
C93   H106  S    
C175  H167  S    
C94   H109  S    
C33   C171  A    
C71   H45   S    
C140  O60   S    
C168  H161  S    
C16   H195  S    
O12   Zn5   S    
C128  H113  S    
C140  C144  A    
C130  H2    S    
C104  H138  S    
C6    C10   S    
C26   O36   A    
C188  H176  S    
C24   N10   A    
C92   H104  S    
C23   O3    A    
C68   H212  S    
C188  C192  S    
C79   H213  S    
C174  H171  S    
C87   O62   S    
O22   Zn1   S    
C181  O27   A    
C92   C93   S    
O18   Zn8   S    
C189  H177  S    
C94   C95   S    
C60   H19   S    
C46   C117  S    
C103  C104  S    
C126  O47   S    
O38   Zn10  S    
C11   C180  S    
C170  H158  S    
C9    C178  S    
C71   H47   S    
C158  H155  S    
C55   H9    S    
C44   C49   A    
O30   Zn11  S    
C113  O51   S    
O36   Zn8   S    
C178  C191  S    
C43   H187  S    
C143  H135  S    
C187  H175  S    
C144  C148  A    
C106  H217  S    
C81   C82   S    
C28   C162  S    
C110  H68   S    
C172  C176  S    
C165  N6    A    
C62   H26   S    
C38   C42   A    
C31   H112  S    
C57   H211  S    
C155  H152  S    
C11   O65   S    
C56   H10   S    
C21   O72   A    
C135  C160  S    
C170  C192  S    
C47   H190  S    
C131  O55   S    
C83   H77   S    
N14   N15   A    
C92   O64   S    
C6    C15   S    
O7    Zn4   S    
C2    C39   S    
C179  C192  S    
C67   H38   S    
C74   O55   S    
C106  C123  S    
C133  O14   A    
C108  C125  S    
C43   C48   A    
C95   H114  S    
C187  C191  S    
C183  O24   A    
C126  H101  S    
C70   O53   S    
N2    N6    A    
C52   H222  S    
C37   H150  S    
C46   H210  S    
C15   H194  S    
C68   C106  S    
C104  H140  S    
C179  H89   S    
C68   H208  S    
C168  C173  S    
C135  O16   A    
C74   C75   S    
C84   H80   S    
C176  H168  S    
C36   C40   A    
C76   C77   S    
C82   H74   S    
C113  H192  S    
C39   C43   A    
C152  H144  S    
C63   C64   S    
C67   C69   S    
C122  C126  S    
C153  H145  S    
C69   H42   S    
C88   H94   S    
O31   Zn1   S    
C80   H69   S    
C26   O31   A    
C73   H51   S    
C40   C44   A    
O1    Zn1   S    
C96   C97   S    
C100  C102  S    
C176  H173  S    
C165  N16   A    
C76   H61   S    
C107  C115  S    
C127  O13   A    
C72   O54   S    
C183  O28   A    
C164  N5    A    
C94   O65   S    
C141  C163  A    
C2    N13   A    
C29   O39   A    
C61   H22   S    
C130  O54   S    
C18   C120  S    
C65   O51   S    
C27   O32   A    
C113  C131  S    
O37   Zn9   S    
C135  O20   A    
C114  C132  S    
C72   H49   S    
C77   H62   S    
C114  C119  S    
C108  H46   S    
C183  C191  S    
C9    O63   S    
C81   O59   S    
C17   O40   A    
O6    Zn12  S    
C132  O57   S    
C38   H151  S    
C54   H6    S    
C25   O8    A    
C49   C149  A    
O42   Zn12  S    
C51   C171  A    
C147  C152  A    
C168  H156  S    
C74   H55   S    
O4    Zn4   S    
C123  C128  S    
C58   H15   S    
O40   Zn3   S    
C95   H110  S    
C64   H29   S    
C42   C47   A    
C102  H134  S    
C116  O11   A    
C177  H87   S    
C113  C118  S    
C178  H88   S    
C89   H98   S    
C125  H90   S    
C81   H72   S    
C65   C66   S    
C150  C154  A    
C97   H123  S    
C116  O23   A    
N12   N13   A    
C111  C115  S    
C189  H182  S    
C60   H18   S    
C44   H188  S    
C120  C124  S    
C32   C160  A    
