data_mof_unit_pretest_1242.cif
_audit_creation_date              2012-12-11T15:39:14-0500
_audit_creation_method            fapswitch 2.2
_symmetry_space_group_name_H-M    P1
_symmetry_Int_Tables_number       1
_space_group_crystal_system       triclinic
_cell_length_a                    14.340309
_cell_length_b                    14.800249
_cell_length_c                    33.202612
_cell_angle_alpha                 97.585824
_cell_angle_beta                  90.294307
_cell_angle_gamma                 118.957035
_cell_volume                      6092.5783491

loop_
_atom_site_label
_atom_site_type_symbol
_atom_type_description
_atom_site_fract_x
_atom_site_fract_y
_atom_site_fract_z
_atom_type_partial_charge
C1    C     C_R   0.617006 0.910339 0.437024 0.542897
C2    C     C_R   0.742408 0.424918 0.187840 0.031913
C3    C     C_R   0.718548 0.885825 0.652094 -0.120967
C4    C     C_R   0.647272 0.781489 0.655974 0.026749
C5    C     C_R   0.636038 0.859362 0.584636 0.022624
C6    C     C_R   0.051992 0.781225 0.063815 0.543814
C7    C     C_R   0.743939 0.486879 0.066242 0.546003
C8    C     C_R   0.742902 0.789160 0.066422 0.552601
C9    C     C_R   0.019739 0.731048 0.946860 0.535915
C10   C     C_R   0.712350 0.437888 0.949191 0.532581
C11   C     C_R   0.738051 0.719490 0.944918 0.557237
C12   C     C_R   0.829710 0.440135 0.165185 -0.119310
C13   C     C_R   0.827590 0.453129 0.124408 -0.125583
C14   C     C_R   0.781225 0.356311 0.246568 -0.114737
C15   C     C_R   0.774191 0.343714 0.287481 -0.111933
C16   C     C_R   0.733719 0.395988 0.314121 0.031165
C17   C     C_R   0.706228 0.465608 0.299706 -0.115581
C18   C     C_R   0.712729 0.477722 0.258775 -0.113412
C19   C     C_R   0.747238 0.420760 0.231731 0.030185
C20   C     C_R   0.607551 0.346513 0.368688 -0.118489
C21   C     C_R   0.594159 0.205661 0.456651 0.544045
C22   C     C_R   0.573018 0.299618 0.403381 -0.126690
C23   C     C_R   0.741012 0.300173 0.412961 -0.126872
C24   C     C_R   0.775634 0.347359 0.378318 -0.121662
C25   C     C_R   0.707559 0.367230 0.355046 0.033026
C26   C     C_R   0.637789 0.272288 0.424865 0.021799
C27   C     C_R   0.244852 0.878147 0.393416 0.020288
C28   C     C_R   0.232757 0.959390 0.380812 -0.127640
C29   C     C_R   0.208618 0.956935 0.339732 -0.114918
C30   C     C_R   0.195630 0.873112 0.310856 0.040454
C31   C     C_R   0.200647 0.788835 0.323406 -0.112841
C32   C     C_R   0.295684 0.892840 0.434395 0.541868
C33   C     C_R   0.224881 0.791101 0.364457 -0.127950
C34   C     C_R   0.194983 0.807335 0.163274 -0.112517
C35   C     C_R   0.167270 0.786102 0.121413 -0.125504
C36   C     C_R   0.089251 0.900075 0.129740 -0.128509
C37   C     C_R   0.116556 0.920740 0.171722 -0.114454
C38   C     C_R   0.166005 0.871385 0.188651 0.039645
C39   C     C_1   0.177036 0.876815 0.232044 -0.030147
C40   C     C_1   0.184676 0.876390 0.268133 -0.029998
C41   C     C_R   0.109964 0.828648 0.104474 0.020295
C42   C     C_R   0.637785 0.878728 0.395543 0.020339
C43   C     C_R   0.614301 0.904402 0.551194 0.543375
C44   C     C_R   0.553150 0.799769 0.368571 -0.130571
C45   C     C_R   0.565497 0.787405 0.326886 -0.117381
C46   C     C_R   0.662554 0.853120 0.311902 0.038734
C47   C     C_R   0.749468 0.926599 0.338777 -0.114424
C48   C     C_R   0.737342 0.939270 0.380439 -0.125905
C49   C     C_R   0.778617 0.919848 0.174697 -0.115378
C50   C     C_R   0.793571 0.906915 0.133251 -0.129168
C51   C     C_R   0.618728 0.751789 0.121723 -0.125738
C52   C     C_R   0.603890 0.765085 0.163084 -0.114979
C53   C     C_R   0.685337 0.846864 0.189759 0.039975
C54   C     C_R   0.589713 0.199432 0.570869 0.541181
C55   C     C_1   0.677044 0.849979 0.232797 -0.033246
C56   C     C_1   0.670584 0.850815 0.268875 -0.033547
C57   C     C_R   0.715574 0.820077 0.106715 0.021400
C58   C     C_R   0.623397 0.250712 0.613656 0.019712
C59   C     C_R   0.559646 0.284276 0.635955 -0.130200
C60   C     C_R   0.576491 0.309549 0.678338 -0.119761
C61   C     C_R   0.657208 0.301804 0.698791 0.038773
C62   C     C_R   0.725771 0.275705 0.676712 -0.116144
C63   C     C_R   0.709356 0.250710 0.634323 -0.131269
C64   C     C_R   0.764186 0.349564 0.844622 -0.116072
C65   C     C_R   0.288835 0.886503 0.548495 0.545170
C66   C     C_R   0.773774 0.374731 0.886990 -0.128173
C67   C     C_R   0.592832 0.347684 0.885160 -0.133787
C68   C     C_R   0.583500 0.322566 0.842770 -0.117791
C69   C     C_R   0.670528 0.327279 0.822430 0.040460
C70   C     C_1   0.666868 0.317918 0.778867 -0.034494
C71   C     C_1   0.663625 0.311685 0.742372 -0.035352
C72   C     C_R   0.689970 0.378989 0.907532 0.020336
C73   C     C_R   0.055581 0.746905 0.905811 0.024720
C74   C     C_R   0.079086 0.840331 0.891566 -0.133034
C75   C     C_R   0.086931 0.846433 0.850122 -0.122399
C76   C     C_R   0.737857 0.450584 0.105799 0.020789
C77   C     C_R   0.069650 0.758733 0.822369 0.016651
C78   C     C_R   0.052641 0.667499 0.836798 -0.125494
C79   C     C_R   0.046187 0.661742 0.878268 -0.122184
C80   C     C_R   0.139291 0.734526 0.756619 -0.150727
C81   C     C_R   0.151268 0.745418 0.715846 -0.132392
C82   C     C_R   0.096986 0.786415 0.696122 -0.021812
C83   C     C_R   0.027347 0.813090 0.717170 -0.051744
C84   C     C_R   0.011474 0.799034 0.757887 0.250435
C85   C     C_R   0.071523 0.762878 0.778329 0.019164
C86   C     C_R   0.162884 0.909363 0.645699 -0.118153
C87   C     C_R   0.647918 0.428254 0.127896 -0.124107
C88   C     C_R   0.211801 0.934720 0.609526 -0.128446
C89   C     C_R   0.165741 0.753574 0.588962 -0.125209
C90   C     C_R   0.117455 0.728540 0.625031 -0.119446
C91   C     C_R   0.120264 0.807130 0.654368 0.027802
C92   C     C_R   0.218108 0.857772 0.581878 0.021490
C93   C     C_R   0.707367 0.712186 0.901603 0.021710
C94   C     C_R   0.627102 0.618611 0.878933 -0.128784
C95   C     C_R   0.603677 0.613672 0.837331 -0.121064
C96   C     C_R   0.659529 0.702721 0.818493 0.028858
C97   C     C_R   0.740704 0.794755 0.840928 -0.124046
C98   C     C_R   0.650388 0.415908 0.168606 -0.120036
C99   C     C_R   0.765223 0.799229 0.881724 -0.126338
C100  C     C_R   0.611830 0.783250 0.767589 -0.113745
C101  C     C_R   0.613415 0.805352 0.728203 -0.112550
C102  C     C_R   0.636427 0.748952 0.696367 0.028999
C103  C     C_R   0.650998 0.665234 0.703879 -0.104278
C104  C     C_R   0.650448 0.643561 0.743743 -0.092006
C105  C     C_R   0.634122 0.704935 0.775891 0.035814
C106  C     C_R   0.576296 0.714001 0.622865 -0.121291
C107  C     C_R   0.570302 0.752849 0.587423 -0.124175
C108  C     C_R   0.713514 0.924437 0.616542 -0.129537
Cr1   Cr    Cr6+3 0.424820 0.846020 0.489780 1.008324
Cr2   Cr    Cr6+3 0.657880 0.078580 0.505700 1.008737
Cr3   Cr    Cr6+3 0.417280 0.075360 0.504550 1.009256
Cr4   Cr    Cr6+3 0.903360 0.812540 0.006510 1.006701
Cr5   Cr    Cr6+3 0.914630 0.587050 0.006280 1.005849
Cr6   Cr    Cr6+3 0.673560 0.582680 0.008540 1.011038
H1    H     H_    0.577425 0.425318 0.114374 0.129143
H2    H     H_    0.493237 0.279366 0.411928 0.125700
H3    H     H_    0.901245 0.446782 0.179512 0.104117
H4    H     H_    0.793257 0.281249 0.429294 0.123379
H5    H     H_    0.184224 0.730814 0.102740 0.124083
H6    H     H_    0.233523 0.768984 0.176109 0.107153
H7    H     H_    0.190339 0.723387 0.301228 0.106380
H8    H     H_    0.233966 0.727546 0.373068 0.123189
H9    H     H_    0.247804 0.027661 0.402283 0.123992
H10   H     H_    0.093740 0.970420 0.191160 0.105513
H11   H     H_    0.044278 0.933250 0.117690 0.124036
H12   H     H_    0.898187 0.470420 0.108153 0.127972
H13   H     H_    0.204511 0.022362 0.330310 0.105411
H14   H     H_    0.869182 0.960400 0.122643 0.120344
H15   H     H_    0.841983 0.983529 0.195249 0.103626
H16   H     H_    0.825066 0.977374 0.327357 0.105957
H17   H     H_    0.804029 0.000550 0.400447 0.126026
H18   H     H_    0.475400 0.752231 0.379214 0.125130
H19   H     H_    0.531263 0.708517 0.174549 0.104039
H20   H     H_    0.557167 0.684338 0.101988 0.121332
H21   H     H_    0.497939 0.730028 0.306192 0.104580
H22   H     H_    0.849703 0.398493 0.903223 0.124234
H23   H     H_    0.853763 0.364203 0.368723 0.102000
H24   H     H_    0.831810 0.352956 0.829073 0.104361
H25   H     H_    0.788698 0.269869 0.692362 0.106006
H26   H     H_    0.759775 0.225060 0.618096 0.124481
H27   H     H_    0.493012 0.285313 0.620951 0.124579
H28   H     H_    0.510475 0.304917 0.825753 0.105638
H29   H     H_    0.526858 0.350183 0.899988 0.124112
H30   H     H_    0.523410 0.330285 0.695261 0.104188
H31   H     H_    0.086572 0.907012 0.912208 0.120139
H32   H     H_    0.026748 0.588323 0.888320 0.124707
H33   H     H_    0.083891 0.649065 0.631224 0.109099
H34   H     H_    0.794487 0.288386 0.297672 0.104508
H35   H     H_    0.206573 0.725829 0.700069 0.121217
H36   H     H_    0.185849 0.706991 0.771637 0.115811
H37   H     H_    0.103111 0.918421 0.839519 0.134884
H38   H     H_    0.984186 0.843505 0.701764 0.133094
H39   H     H_    0.165938 0.970951 0.668233 0.107842
H40   H     H_    0.250991 0.015479 0.604613 0.125454
H41   H     H_    0.040221 0.599382 0.815793 0.105967
H42   H     H_    0.167584 0.692306 0.567764 0.127571
H43   H     H_    0.583221 0.549723 0.893262 0.126316
H44   H     H_    0.807903 0.311631 0.226130 0.103815
H45   H     H_    0.829862 0.871808 0.897614 0.138001
H46   H     H_    0.774105 0.938746 0.677497 0.114714
H47   H     H_    0.599813 0.868768 0.722704 0.111582
H48   H     H_    0.599020 0.831188 0.792095 0.109977
H49   H     H_    0.541166 0.541705 0.820165 0.104808
H50   H     H_    0.667892 0.620477 0.679406 0.109472
H51   H     H_    0.669004 0.583626 0.749820 0.114547
H52   H     H_    0.520625 0.633421 0.625493 0.105418
H53   H     H_    0.510498 0.700791 0.563035 0.119756
H54   H     H_    0.785747 0.863690 0.826662 0.140599
H55   H     H_    0.581198 0.401661 0.185392 0.105699
H56   H     H_    0.765145 0.006658 0.615198 0.123026
H57   H     H_    0.676353 0.507914 0.319801 0.105763
H58   H     H_    0.688387 0.529704 0.247982 0.109526
H59   H     H_    0.552978 0.360065 0.351081 0.103173
O1    O     O_R   0.318160 0.824460 0.443680 -0.521979
O2    O     O_R   0.645130 0.163230 0.552140 -0.503204
O3    O     O_R   0.498360 0.178430 0.555780 -0.519450
O4    O     O_R   0.328690 0.978040 0.538950 -0.500652
O5    O     O_3   0.499990 0.999990 0.500010 -0.233032
O6    O     O_R   0.828710 0.851830 0.052170 -0.515490
O7    O     O_R   0.005980 0.823990 0.047210 -0.501357
O8    O     O_R   0.031900 0.688850 0.050170 -0.514968
O9    O     O_R   0.830940 0.518420 0.048680 -0.498697
O10   O     O_R   0.668160 0.499860 0.053480 -0.517178
O11   O     O_R   0.689170 0.693840 0.050110 -0.494747
O12   O     O_R   0.525040 0.857250 0.449830 -0.504122
O13   O     O_R   0.803860 0.812940 0.962540 -0.517733
O14   O     O_R   0.982950 0.787950 0.964120 -0.516271
O15   O     O_R   0.007050 0.649970 0.960540 -0.518838
O16   O     O_R   0.807910 0.482370 0.965590 -0.504036
O17   O     O_R   0.643310 0.460980 0.963840 -0.527636
O18   O     O_R   0.666140 0.657800 0.967020 -0.495816
O19   O     O_3   0.830520 0.660760 0.007110 -0.254957
O20   O     O_R   0.684760 0.998800 0.456360 -0.518019
O21   O     O_R   0.647540 0.166310 0.470260 -0.501476
O22   O     O_R   0.500960 0.181750 0.467450 -0.520471
O23   O     O_R   0.331100 0.981120 0.457080 -0.501397
O24   O     O_R   0.315560 0.821140 0.532010 -0.518315
O25   O     O_R   0.522630 0.854180 0.531710 -0.499568
O26   O     O_R   0.682160 0.995480 0.544690 -0.519794
O27   O     O_3   0.936658 0.820483 0.776121 -0.723550
H60   H     H_    0.914766 0.784820 0.800350 0.330765

loop_
_geom_bond_atom_site_label_1
_geom_bond_atom_site_label_2
_ccdc_geom_bond_type
C65   C92   S    
C21   C26   S    
C101  C102  A    
Cr6   O17   S    
C99   H45   S    
C11   O13   A    
C73   C74   A    
C74   H31   S    
Cr1   O24   S    
C95   C96   A    
C32   O23   A    
C9    O15   A    
C2    C12   A    
C23   H4    S    
C81   C82   A    
C36   C41   A    
C28   H9    S    
C64   H24   S    
C77   C78   A    
C27   C33   A    
C80   H36   S    
C100  C105  A    
C80   C85   A    
C9    C73   S    
C14   H44   S    
C83   C84   A    
C106  H52   S    
C36   C37   A    
C86   H39   S    
C67   C72   A    
C108  H56   S    
C86   C91   A    
C54   C58   S    
C38   C39   S    
C51   H20   S    
C81   H35   S    
C78   H41   S    
C20   C25   A    
Cr2   O5    S    
C15   C16   A    
C58   C63   A    
C18   C19   A    
C11   O18   A    
C34   C35   A    
C63   H26   S    
C23   C26   A    
C54   O3    A    
C104  H51   S    
C98   H55   S    
C35   H5    S    
Cr1   O5    S    
C66   C72   A    
C88   C92   A    
C75   H37   S    
C68   C69   A    
C6    C41   S    
C4    C102  S    
Cr2   O21   S    
Cr3   O5    S    
C23   C24   A    
C31   C33   A    
C48   H17   S    
C68   H28   S    
C70   C71   T    
C51   C57   A    
C3    C108  A    
C62   H25   S    
C29   C30   A    
C93   C99   A    
C87   H1    S    
C61   C62   A    
Cr3   O23   S    
Cr4   O7    S    
C87   C98   A    
C8    O11   A    
C22   H2    S    
C5    C43   S    
C67   H29   S    
C59   C60   A    
C3    H46   S    
C52   H19   S    
Cr1   O25   S    
C69   C70   S    
C42   C44   A    
Cr4   O14   S    
C104  C105  A    
C97   C99   A    
C79   H32   S    
C53   C55   S    
C34   H6    S    
C107  H53   S    
C45   H21   S    
C90   H33   S    
Cr6   O19   S    
C74   C75   A    
C6    O8    A    
C67   C68   A    
C10   O16   A    
C47   C48   A    
C24   C25   A    
C31   H7    S    
C39   C40   T    
C11   C93   S    
Cr1   O1    S    
C16   C17   A    
C89   H42   S    
C47   H16   S    
Cr1   O12   S    
C58   C59   A    
Cr2   O2    S    
Cr5   O15   S    
C4    C106  A    
C21   O22   A    
C82   C91   S    
Cr3   O3    S    
C60   C61   A    
C88   H40   S    
C54   O2    A    
C1    O20   A    
C37   C38   A    
C95   H49   S    
C8    C57   S    
Cr4   O19   S    
C37   H10   S    
C20   H59   S    
C13   C76   A    
C96   C97   A    
C49   H15   S    
C62   C63   A    
C17   C18   A    
C73   C79   A    
C30   C40   S    
C94   C95   A    
C93   C94   A    
C42   C48   A    
C64   C69   A    
C84   C85   A    
C89   C92   A    
C75   C77   A    
C76   C87   A    
C2    C98   A    
C7    C76   S    
C10   O17   A    
Cr4   O6    S    
C65   O24   A    
C13   H12   S    
C20   C22   A    
C82   C83   A    
C94   H43   S    
C1    O12   A    
C29   H13   S    
C22   C26   A    
C33   H8    S    
C21   O21   A    
C66   H22   S    
Cr5   O8    S    
C50   H14   S    
C3    C4    A    
Cr6   O11   S    
Cr5   O9    S    
C103  C104  A    
C52   C53   A    
C96   C105  S    
C83   H38   S    
C5    C107  A    
Cr2   O20   S    
C16   C25   S    
Cr5   O19   S    
C46   C47   A    
C28   C29   A    
Cr6   O18   S    
C7    O9    A    
C6    O7    A    
Cr2   O26   S    
C34   C38   A    
C50   C57   A    
C14   C19   A    
C44   C45   A    
C80   C81   A    
C9    O14   A    
C100  H48   S    
C17   H57   S    
C103  H50   S    
C15   H34   S    
C32   O1    A    
C18   H58   S    
C24   H23   S    
C44   H18   S    
C97   H54   S    
Cr5   O16   S    
C7    O10   A    
C101  H47   S    
C51   C52   A    
C60   H30   S    
Cr4   O13   S    
C78   C79   A    
C8    O6    A    
C61   C71   S    
C90   C91   A    
C30   C31   A    
Cr3   O22   S    
C65   O4    A    
O27   H60   S    
C49   C53   A    
C100  C101  A    
C43   O25   A    
C86   C88   A    
C84   O27   S    
C102  C103  A    
C35   C41   A    
C27   C32   S    
C55   C56   T    
C77   C85   S    
C12   H3    S    
C45   C46   A    
C1    C42   S    
C36   H11   S    
C12   C13   A    
C59   H27   S    
C49   C50   A    
C106  C107  A    
C46   C56   S    
C27   C28   A    
Cr3   O4    S    
C14   C15   A    
C43   O26   A    
C89   C90   A    
Cr6   O10   S    
C2    C19   S    
C64   C66   A    
C5    C108  A    
C10   C72   S    
