data_mof_unit_pretest_68.cif
_audit_creation_date              2012-12-11T17:44:02-0500
_audit_creation_method            fapswitch 2.2
_symmetry_space_group_name_H-M    P1
_symmetry_Int_Tables_number       1
_space_group_crystal_system       triclinic
_cell_length_a                    20.080604
_cell_length_b                    22.811492
_cell_length_c                    6.980428
_cell_angle_alpha                 90.000039
_cell_angle_beta                  88.205547
_cell_angle_gamma                 90.0
_cell_volume                      3195.94637334

loop_
_atom_site_label
_atom_site_type_symbol
_atom_type_description
_atom_site_fract_x
_atom_site_fract_y
_atom_site_fract_z
_atom_type_partial_charge
O1    O     O_R   0.751270 0.447300 0.600030 -0.500706
O2    O     O_R   0.248730 0.947300 0.399970 -0.500705
O3    O     O_R   0.613530 0.440160 0.952150 -0.524323
O4    O     O_R   0.386470 0.940160 0.047850 -0.524324
O5    O     O_R   0.613050 0.552700 0.122560 -0.540162
O6    O     O_R   0.386950 0.052700 0.877440 -0.540162
C1    C     C_R   0.591610 0.425124 0.784542 0.736476
C2    C     C_R   0.408390 0.925125 0.215458 0.736478
O7    O     O_R   0.750780 0.440350 0.929820 -0.521679
O8    O     O_R   0.249220 0.940350 0.070180 -0.521679
O9    O     O_R   0.751280 0.552900 0.100070 -0.544114
O10   O     O_R   0.248720 0.052900 0.899930 -0.544115
C3    C     C_R   0.774619 0.426448 0.758611 0.802764
C4    C     C_R   0.225381 0.926448 0.241389 0.802768
O11   O     O_R   0.613040 0.447100 0.622520 -0.537177
O12   O     O_R   0.386960 0.947100 0.377480 -0.537177
O13   O     O_3   0.682160 0.536920 0.777780 -0.388775
O14   O     O_3   0.317840 0.036920 0.222220 -0.388775
V1    V     V_3+5 0.682160 0.493150 0.052630 1.518387
V2    V     V_3+5 0.317840 0.993150 0.947370 1.518387
O15   O     O_R   0.750790 0.559840 0.429870 -0.550083
O16   O     O_R   0.249210 0.059840 0.570130 -0.550083
C5    C     C_R   0.774006 0.573748 0.259615 0.702223
C6    C     C_R   0.225994 0.073748 0.740385 0.702225
O17   O     O_R   0.613540 0.559650 0.452200 -0.544869
O18   O     O_R   0.386460 0.059650 0.547800 -0.544870
C7    C     C_R   0.591609 0.574522 0.284867 0.684056
C8    C     C_R   0.408391 0.074522 0.715133 0.684056
V3    V     V_3+5 0.682160 0.506850 0.552630 1.478539
V4    V     V_3+5 0.317840 0.006850 0.447370 1.478541
O19   O     O_3   0.682150 0.463080 0.277610 -0.333813
O20   O     O_3   0.317850 0.963080 0.722390 -0.333814
C9    C     C_R   0.571488 0.861120 0.361846 -0.158291
C10   C     C_R   0.428514 0.361119 0.638141 -0.158291
H1    H     H_    0.526424 0.946036 0.365577 0.120334
H2    H     H_    0.473579 0.446035 0.634407 0.120334
H3    H     H_    0.662346 0.778507 0.412360 0.120606
H4    H     H_    0.337656 0.278506 0.587621 0.120606
H5    H     H_    0.616640 0.877296 0.424567 0.119869
H6    H     H_    0.383363 0.377295 0.575412 0.119868
C11   C     C_R   0.463759 0.882315 0.229924 -0.107356
C12   C     C_R   0.536241 0.382315 0.770075 -0.107360
C13   C     C_R   0.472369 0.595282 0.244521 -0.236345
C14   C     C_R   0.527631 0.095282 0.755484 -0.236347
C15   C     C_R   0.417642 0.632626 0.239794 -0.212067
C16   C     C_R   0.582357 0.132625 0.760220 -0.212058
C17   C     C_R   0.425232 0.693650 0.260401 0.462421
C18   C     C_R   0.574768 0.193650 0.739620 0.462420
C19   C     C_R   0.490415 0.718001 0.259981 0.012030
C20   C     C_R   0.509585 0.218001 0.740027 0.012026
C21   C     C_R   0.545225 0.678967 0.288967 0.012028
C22   C     C_R   0.454776 0.178967 0.711034 0.012030
C23   C     C_R   0.502320 0.780127 0.254432 0.047347
C24   C     C_R   0.497680 0.280127 0.745573 0.047343
C25   C     C_R   0.563032 0.801174 0.327161 0.109862
C26   C     C_R   0.436969 0.301174 0.672833 0.109865
C27   C     C_R   0.614984 0.762312 0.363995 -0.175911
C28   C     C_R   0.385018 0.262312 0.635995 -0.175909
C29   C     C_R   0.607352 0.702387 0.335577 -0.168559
C30   C     C_R   0.392649 0.202387 0.664415 -0.168560
C31   C     C_R   0.457451 0.822505 0.178687 0.170190
C32   C     C_R   0.542547 0.322506 0.821320 0.170191
C33   C     C_R   0.520608 0.900521 0.324779 -0.191834
C34   C     C_R   0.479393 0.400520 0.675210 -0.191828
C35   C     C_R   0.535994 0.617281 0.276579 -0.080649
C36   C     C_R   0.464006 0.117281 0.723422 -0.080648
H7    H     H_    0.464639 0.548500 0.229671 0.129517
H8    H     H_    0.535360 0.048500 0.770332 0.129517
H9    H     H_    0.368687 0.613764 0.223578 0.129941
H10   H     H_    0.631312 0.113763 0.776440 0.129938
H11   H     H_    0.649615 0.674259 0.360833 0.107783
H12   H     H_    0.350387 0.174258 0.639154 0.107785
C37   C     C_R   0.167207 0.884988 0.261433 -0.265752
C38   C     C_R   0.832792 0.384987 0.738566 -0.265743
C39   C     C_R   0.145097 0.849166 0.109550 -0.004501
C40   C     C_R   0.854902 0.349165 0.890450 -0.004500
C41   C     C_R   0.085624 0.816491 0.134621 0.431368
C42   C     C_R   0.914374 0.316490 0.865380 0.431372
C43   C     C_R   0.062772 0.801871 0.321666 0.232285
C44   C     C_R   0.937227 0.301870 0.678335 0.232292
C45   C     C_R   0.087060 0.834447 0.472167 -0.346403
C46   C     C_R   0.912938 0.334445 0.527834 -0.346424
C47   C     C_R   0.130816 0.881792 0.438391 0.410390
C48   C     C_R   0.869183 0.381791 0.561609 0.410388
C49   C     C_R   0.901328 0.687561 0.403896 -0.173178
C50   C     C_R   0.098671 0.187560 0.596105 -0.173175
C51   C     C_R   0.844716 0.651682 0.406385 -0.221281
C52   C     C_R   0.155283 0.151682 0.593615 -0.221281
C53   C     C_R   0.946552 0.686772 0.245348 0.367813
C54   C     C_R   0.053448 0.186771 0.754653 0.367813
N1    N     N_2   0.009934 0.760930 0.359795 -0.275075
N2    N     N_2   0.990065 0.260929 0.640207 -0.275073
N3    N     N_2   0.003713 0.723893 0.229709 -0.196810
N4    N     N_2   0.996286 0.223892 0.770293 -0.196810
C55   C     C_R   0.831247 0.615032 0.249817 -0.081776
C56   C     C_R   0.168753 0.115031 0.750183 -0.081777
H13   H     H_    0.811469 0.652522 0.531554 0.143819
H14   H     H_    0.188530 0.152522 0.468446 0.143819
H15   H     H_    0.909565 0.715600 0.525967 0.173430
H16   H     H_    0.090434 0.215600 0.474034 0.173430
H17   H     H_    0.069879 0.824710 0.615330 0.209087
H18   H     H_    0.930120 0.324709 0.384671 0.209089
C57   C     C_R   0.875689 0.615197 0.090519 -0.239369
C58   C     C_R   0.124311 0.115197 0.909482 -0.239369
C59   C     C_R   0.932913 0.650355 0.089122 0.134940
C60   C     C_R   0.067086 0.150354 0.910879 0.134939
H19   H     H_    0.867118 0.586868 0.969227 0.146244
H20   H     H_    0.132883 0.086868 0.030774 0.146244
O21   O     O_3   0.143087 0.921722 0.583045 -0.534873
C61   C     C_3   0.084068 0.951292 0.643169 0.096479
H21   H     H_    0.091868 0.968155 0.790152 0.136544
H22   H     H_    0.039560 0.922596 0.652268 0.089680
C62   C     C_3   0.069246 0.003072 0.512149 -0.348987
H23   H     H_    0.112605 0.033120 0.505177 0.210918
H24   H     H_    0.060304 0.987136 0.364685 0.180384
C63   C     C_3   0.007571 0.035953 0.587642 -0.751723
H25   H     H_    0.962437 0.008390 0.572523 0.225051
H26   H     H_    0.001248 0.076985 0.506008 0.269174
H27   H     H_    0.012482 0.047528 0.740968 0.234129
O22   O     O_3   0.856912 0.421720 0.416954 -0.534873
C64   C     C_3   0.915932 0.451291 0.356833 0.096478
H28   H     H_    0.908132 0.468152 0.209848 0.136543
H29   H     H_    0.960440 0.422595 0.347739 0.089680
C65   C     C_3   0.930751 0.503072 0.487851 -0.348985
H30   H     H_    0.887391 0.533119 0.494819 0.210917
H31   H     H_    0.939693 0.487137 0.635316 0.180383
C66   C     C_3   0.992425 0.535955 0.412360 -0.751719
H32   H     H_    0.037561 0.508393 0.427488 0.225052
H33   H     H_    0.998745 0.576988 0.493988 0.269174
H34   H     H_    0.987516 0.547527 0.259031 0.234127
O23   O     O_3   0.048079 0.801637 0.978767 -0.529901
C67   C     C_3   0.000424 0.846755 0.948149 0.101653
H35   H     H_    0.985033 0.843682 0.797629 0.139256
H36   H     H_    0.021533 0.891457 0.968696 0.073057
C68   C     C_3   0.936100 0.839969 0.071044 -0.301557
H37   H     H_    0.916377 0.794791 0.056178 0.224989
H38   H     H_    0.945895 0.848950 0.223678 0.192354
C69   C     C_3   0.882878 0.883171 0.008749 -0.852236
H39   H     H_    0.901162 0.928929 0.021758 0.239318
H40   H     H_    0.837395 0.877972 0.101822 0.236779
H41   H     H_    0.869577 0.874732 0.857937 0.233266
O24   O     O_3   0.951919 0.301636 0.021233 -0.529902
C70   C     C_3   0.999574 0.346754 0.051852 0.101652
H42   H     H_    0.014965 0.343682 0.202372 0.139257
H43   H     H_    0.978465 0.391457 0.031306 0.073057
C71   C     C_3   0.063898 0.339969 0.928957 -0.301557
H44   H     H_    0.083622 0.294791 0.943821 0.224989
H45   H     H_    0.054103 0.348950 0.776323 0.192353
C72   C     C_3   0.117120 0.383171 0.991252 -0.852234
H46   H     H_    0.098836 0.428929 0.978244 0.239318
H47   H     H_    0.162603 0.377973 0.898178 0.236779
H48   H     H_    0.130421 0.374731 0.142063 0.233266
I1    I     I_    0.999215 0.647656 0.848002 -0.430748
I2    I     I_    0.000785 0.147656 0.152001 -0.430749
I3    I     I_    0.205237 0.829780 0.862923 -0.317893
I4    I     I_    0.794761 0.329780 0.137075 -0.317895
I5    I     I_    0.401149 0.803128 0.930702 -0.360138
I6    I     I_    0.598842 0.303131 0.069323 -0.360129
O25   O     O_3   0.370055 0.730330 0.277594 -0.563189
C73   C     C_3   0.322561 0.711910 0.419471 0.092652
H49   H     H_    0.317078 0.747757 0.526608 0.185954
H50   H     H_    0.336785 0.672006 0.500894 0.103958
C74   C     C_3   0.255367 0.702771 0.326094 -0.311712
H51   H     H_    0.240618 0.743910 0.253243 0.235234
H52   H     H_    0.260113 0.667604 0.216409 0.200659
C75   C     C_3   0.200831 0.686011 0.473113 -0.742225
H53   H     H_    0.213891 0.644528 0.546305 0.227272
H54   H     H_    0.153061 0.679692 0.399778 0.257514
H55   H     H_    0.193914 0.721299 0.581287 0.266011
O26   O     O_3   0.629945 0.230329 0.722447 -0.563188
C76   C     C_3   0.677441 0.211914 0.580566 0.092657
H56   H     H_    0.682932 0.247768 0.473458 0.185958
H57   H     H_    0.663211 0.172018 0.499110 0.103962
C77   C     C_3   0.744631 0.202759 0.673948 -0.311751
H58   H     H_    0.759377 0.243885 0.746873 0.235258
H59   H     H_    0.739880 0.167574 0.783570 0.200635
C78   C     C_3   0.799172 0.186022 0.526917 -0.742220
H60   H     H_    0.786109 0.144558 0.453619 0.227290
H61   H     H_    0.846936 0.179679 0.600258 0.257507
H62   H     H_    0.806102 0.221332 0.418832 0.266010

loop_
_geom_bond_atom_site_label_1
_geom_bond_atom_site_label_2
_ccdc_geom_bond_type
C9    C25   A    
C70   C71   S    
C59   I1    S    
C76   H56   S    
C52   C56   A    
C10   C26   A    
C54   N4    S    
C68   C69   S    
O13   V3    S    
C14   C36   A    
C74   H51   S    
C11   C31   A    
O4    C2    A    
V1    O19   S    
C58   C60   A    
C68   H37   S    
C17   C19   A    
C45   H17   S    
C76   H57   S    
O9    V1    S    
C9    H5    S    
C38   C40   A    
C5    C55   S    
C10   H6    S    
C74   H52   S    
C40   C42   A    
C62   H23   S    
O3    C1    A    
C6    C56   S    
C41   O23   S    
C42   C44   A    
C27   C29   A    
O26   C76   S    
C30   H12   S    
C28   C30   A    
C70   H42   S    
C71   C72   S    
C50   C52   A    
C63   H25   S    
C70   H43   S    
C21   C35   A    
C1    C12   S    
O7    C3    A    
C77   H58   S    
C64   C65   S    
C22   C30   A    
O5    C7    A    
C23   C31   A    
O7    V1    S    
O6    C8    A    
O8    V2    S    
C67   H35   S    
C78   H61   S    
C51   C55   A    
C20   C22   A    
C47   O21   S    
O3    V1    S    
O14   V4    S    
C50   H16   S    
C12   C32   A    
C43   N1    S    
C9    C33   A    
C62   C63   S    
C18   C20   A    
C2    O12   A    
H4    C28   S    
C48   O22   S    
C75   H54   S    
C37   C39   A    
C15   C17   A    
C10   C34   A    
C45   C47   A    
C14   C16   A    
O11   V3    S    
C71   H45   S    
C23   C25   A    
O15   C5    A    
O17   V3    S    
C76   C77   S    
C16   C18   A    
C16   H10   S    
C49   C51   A    
C15   H9    S    
C4    C37   S    
C74   C75   S    
C2    C11   S    
C54   C60   A    
C44   C46   A    
C73   C74   S    
C50   C54   A    
C72   H48   S    
C43   C45   A    
C49   C53   A    
C17   O25   S    
C1    O11   A    
C24   C32   A    
C19   C21   A    
O15   V3    S    
C40   I4    S    
C61   H21   S    
C73   H50   S    
C44   N2    S    
C8    C36   S    
C66   H33   S    
C7    C35   S    
C31   I5    S    
N1    N3    D    
C55   C57   A    
C13   C15   A    
O25   C73   S    
C61   C62   S    
C13   C35   A    
C78   H62   S    
O10   V2    S    
N2    N4    D    
C46   H18   S    
C41   C43   A    
C57   C59   A    
C20   C24   A    
C39   C41   A    
C77   C78   S    
C64   H28   S    
C69   H40   S    
C63   H26   S    
C65   C66   S    
C18   O26   S    
C67   H36   S    
O18   V4    S    
C46   C48   A    
C60   I2    S    
C25   C27   A    
O8    C4    A    
C75   H53   S    
O16   C6    A    
C14   H8    S    
O1    C3    A    
C11   C33   A    
C66   H32   S    
C69   H41   S    
C12   C34   A    
C58   H20   S    
C22   C36   A    
O22   C64   S    
C65   H31   S    
C71   H44   S    
V2    O20   S    
C68   H38   S    
C56   C58   A    
O16   V4    S    
C38   C48   A    
C42   O24   S    
C57   H19   S    
C24   C26   A    
H3    C27   S    
O5    V1    S    
O17   C7    A    
O6    V2    S    
O10   C6    A    
O18   C8    A    
C63   H27   S    
O2    V4    S    
C73   H49   S    
C72   H47   S    
C66   H34   S    
V3    O19   S    
H2    C34   S    
C72   H46   S    
V4    O20   S    
C49   H15   S    
O1    V3    S    
C67   C68   S    
C19   C23   A    
O9    C5    A    
O13   V1    S    
C77   H59   S    
C26   C28   A    
C32   I6    S    
O14   V2    S    
C53   N3    S    
O2    C4    A    
C61   H22   S    
C64   H29   S    
C69   H39   S    
O4    V2    S    
C39   I3    S    
C21   C29   A    
C3    C38   S    
C75   H55   S    
C13   H7    S    
C78   H60   S    
C53   C59   A    
O24   C70   S    
H1    C33   S    
C62   H24   S    
O21   C61   S    
O12   V4    S    
C37   C47   A    
C52   H14   S    
O23   C67   S    
C29   H11   S    
C65   H30   S    
C51   H13   S    
