data_mof_unit_pretest_248.cif
_audit_creation_date              2012-12-10T18:22:13-0500
_audit_creation_method            fapswitch 2.2
_symmetry_space_group_name_H-M    P1
_symmetry_Int_Tables_number       1
_space_group_crystal_system       triclinic
_cell_length_a                    15.044465
_cell_length_b                    13.999999
_cell_length_c                    15.758819
_cell_angle_alpha                 90.188906
_cell_angle_beta                  89.833268
_cell_angle_gamma                 90.669223
_cell_volume                      3318.90364398

loop_
_atom_site_label
_atom_site_type_symbol
_atom_type_description
_atom_site_fract_x
_atom_site_fract_y
_atom_site_fract_z
_atom_type_partial_charge
C1    C     C_R   0.326306 0.499060 0.498391 0.909924
C2    C     C_R   0.905441 0.414481 0.529322 -0.027516
C3    C     C_R   0.953141 0.499072 0.510562 -0.051963
C4    C     C_R   0.500158 0.499847 0.338229 0.889642
C5    C     C_R   0.908264 0.585945 0.496968 0.014760
C6    C     C_R   0.950215 0.328773 0.541898 -0.331502
C7    C     C_R   0.042268 0.323934 0.531389 0.537845
C8    C     C_R   0.090580 0.408905 0.513232 -0.098181
C9    C     C_R   0.045677 0.496893 0.505509 -0.051117
C10   C     C_R   0.093238 0.583043 0.492461 0.076029
C11   C     C_R   0.048849 0.669379 0.482503 -0.308453
C12   C     C_3   0.598521 0.527375 0.949978 0.902800
C13   C     C_R   0.956262 0.671084 0.481759 0.538521
C14   C     C_R   0.182995 0.408412 0.501691 0.498716
C15   C     C_R   0.230014 0.496218 0.496664 -0.216628
C16   C     C_R   0.673383 0.500363 0.503317 0.916864
C17   C     C_R   0.184946 0.582336 0.490834 -0.306991
C18   C     C_R   0.568293 0.798395 0.461616 0.011032
C19   C     C_R   0.568856 0.203025 0.462520 0.040726
C20   C     C_R   0.432128 0.797704 0.538193 -0.058839
C21   C     C_R   0.432006 0.200921 0.537962 -0.063910
C22   C     C_R   0.430720 0.898263 0.538679 0.071721
C23   C     C_3   0.590572 0.537652 0.050628 -0.791481
C24   C     C_R   0.430595 0.100357 0.538457 0.059263
C25   C     C_R   0.500919 0.949434 0.499654 0.009945
C26   C     C_R   0.500995 0.050632 0.499763 0.008699
C27   C     C_R   0.570638 0.899323 0.460411 -0.173265
C28   C     C_R   0.571474 0.102185 0.461745 -0.185598
C29   C     C_R   0.360928 0.948501 0.577059 -0.214629
C30   C     C_R   0.360788 0.048706 0.576823 -0.201646
C31   C     C_R   0.642719 0.052053 0.424530 0.410830
C32   C     C_R   0.640454 0.950938 0.420832 0.431713
C33   C     C_R   0.500073 0.500136 0.661763 0.886295
C34   C     C_1   0.500732 0.500760 0.825479 0.137981
C35   C     C_3   0.427216 0.571997 0.050274 0.319016
C36   C     C_3   0.487911 0.395302 0.047098 0.372557
C37   C     C_3   0.476372 0.397309 0.949462 0.246113
C38   C     C_3   0.437490 0.580704 0.952524 0.298960
C39   C     C_1   0.500458 0.500469 0.750360 -0.173908
C40   C     C_3   0.498274 0.499657 0.083140 -0.058401
C41   C     C_3   0.501256 0.500904 0.916960 -0.134798
C42   C     C_3   0.299154 0.533614 0.887396 -0.101656
C43   C     C_3   0.386542 0.274235 0.895374 -0.336844
C44   C     C_3   0.051143 0.162616 0.500864 -0.315244
C45   C     C_1   0.499315 0.499259 0.174451 0.062600
C46   C     C_3   0.232424 0.293561 0.411947 -0.247228
C47   C     C_3   0.915866 0.784464 0.387134 -0.315644
C48   C     C_3   0.782268 0.109094 0.447158 -0.273629
C49   C     C_3   0.690853 0.893762 0.295237 -0.333648
C50   C     C_3   0.290266 0.624091 0.101350 -0.351265
C51   C     C_3   0.348130 0.351586 0.111436 -0.114920
C52   C     C_3   0.676766 0.680264 0.949729 -0.386041
C53   C     C_3   0.745874 0.469677 0.932441 -0.275166
C54   C     C_3   0.749720 0.337661 0.645443 -0.304914
C55   C     C_1   0.499901 0.499468 0.249589 -0.199553
C56   C     C_R   0.816082 0.585283 0.496195 -0.297927
C57   C     C_R   0.768901 0.500679 0.511814 -0.214696
C58   C     C_R   0.813165 0.416659 0.534921 0.506070
H1    H     H_    0.085927 0.735593 0.474221 0.155017
H2    H     H_    0.526490 0.347653 0.921440 0.114911
H3    H     H_    0.477257 0.647663 0.945622 0.118653
H4    H     H_    0.598082 0.612131 0.073637 0.189138
H5    H     H_    0.644755 0.497580 0.081860 0.219619
H6    H     H_    0.780794 0.650185 0.481393 0.228081
H7    H     H_    0.913646 0.264881 0.559646 0.191486
H8    H     H_    0.279668 0.490801 0.943312 0.223914
H9    H     H_    0.323506 0.489181 0.834088 0.181233
H10   H     H_    0.237171 0.566868 0.864531 0.132107
H11   H     H_    0.316220 0.253687 0.883673 0.188567
H12   H     H_    0.620787 0.757856 0.431974 0.173093
H13   H     H_    0.413656 0.223974 0.943027 0.199703
H14   H     H_    0.423156 0.267945 0.834231 0.168946
H15   H     H_    0.102887 0.107188 0.494741 0.197057
H16   H     H_    0.031857 0.183694 0.435354 0.133952
H17   H     H_    0.993690 0.129580 0.534590 0.158850
H18   H     H_    0.266519 0.223800 0.408789 0.183538
H19   H     H_    0.271810 0.345325 0.373262 0.142425
H20   H     H_    0.165139 0.283633 0.383905 0.137185
H21   H     H_    0.221269 0.649303 0.484096 0.179915
H22   H     H_    0.881882 0.853866 0.380610 0.238380
H23   H     H_    0.621595 0.244575 0.433208 0.195169
H24   H     H_    0.880233 0.731390 0.346469 0.156701
H25   H     H_    0.985314 0.795099 0.364264 0.142459
H26   H     H_    0.810569 0.037857 0.461315 0.189130
H27   H     H_    0.760010 0.144326 0.506881 0.182806
H28   H     H_    0.836283 0.154008 0.419696 0.184214
H29   H     H_    0.687943 0.964818 0.263986 0.202108
H30   H     H_    0.627870 0.853031 0.284343 0.148560
H31   H     H_    0.745287 0.853288 0.264669 0.175130
H32   H     H_    0.220585 0.600482 0.112382 0.181691
H33   H     H_    0.289605 0.681133 0.052377 0.200562
H34   H     H_    0.379050 0.757222 0.568222 0.136243
H35   H     H_    0.316689 0.652579 0.162340 0.164744
H36   H     H_    0.310468 0.376503 0.055845 0.224636
H37   H     H_    0.346712 0.403088 0.164911 0.179398
H38   H     H_    0.312491 0.286786 0.134244 0.127202
H39   H     H_    0.631392 0.730567 0.982317 0.165295
H40   H     H_    0.716583 0.722724 0.903730 0.205609
H41   H     H_    0.724218 0.649055 0.995307 0.159379
H42   H     H_    0.766568 0.494022 0.996510 0.141629
H43   H     H_    0.766032 0.521694 0.882724 0.206022
H44   H     H_    0.782520 0.403000 0.919097 0.169839
H45   H     H_    0.378939 0.240327 0.567918 0.180582
H46   H     H_    0.708544 0.400216 0.663272 0.170212
H47   H     H_    0.812810 0.338466 0.682173 0.154713
H48   H     H_    0.711896 0.272275 0.663415 0.190973
H49   H     H_    0.306388 0.910286 0.607167 0.142610
H50   H     H_    0.306132 0.085814 0.606714 0.162674
H51   H     H_    0.555397 0.364679 0.055351 0.110200
H52   H     H_    0.445951 0.642977 0.078796 0.050765
N1    N     N_R   0.500070 0.750030 0.500040 -0.114995
N2    N     N_R   0.500070 0.249970 0.500040 -0.122828
O1    O     O_R   0.367860 0.580280 0.500020 -0.638973
O2    O     O_3   0.389394 0.369336 0.925301 -0.622725
O3    O     O_3   0.086734 0.239669 0.548531 -0.555570
O4    O     O_3   0.227600 0.322558 0.497749 -0.557720
O5    O     O_3   0.912924 0.757164 0.473165 -0.603017
O6    O     O_3   0.712731 0.101673 0.387560 -0.603342
O7    O     O_3   0.709606 0.902840 0.382513 -0.605871
O8    O     O_3   0.339902 0.544705 0.074149 -0.617394
O9    O     O_3   0.435726 0.325478 0.091334 -0.616210
O10   O     O_3   0.626862 0.611276 0.903995 -0.609880
O11   O     O_3   0.654038 0.448594 0.928583 -0.657481
O12   O     O_R   0.367860 0.419720 0.500020 -0.581120
O13   O     O_3   0.766305 0.334699 0.557310 -0.622084
O14   O     O_R   0.500020 0.580310 0.377140 -0.623534
O15   O     O_R   0.500020 0.419690 0.377140 -0.615141
O16   O     O_R   0.632160 0.580270 0.499980 -0.639384
O17   O     O_R   0.632160 0.419730 0.499980 -0.577293
O18   O     O_R   0.500010 0.580240 0.622850 -0.597745
O19   O     O_R   0.500010 0.419760 0.622850 -0.623811
O20   O     O_3   0.359922 0.607534 0.906695 -0.614319
Zn1   Zn    Zn3+2 0.500020 0.607200 0.499990 0.948822
Zn2   Zn    Zn3+2 0.500020 0.392800 0.499990 0.973167

loop_
_geom_bond_atom_site_label_1
_geom_bond_atom_site_label_2
_ccdc_geom_bond_type
C33   O18   A    
C18   H12   S    
C43   H14   S    
C22   C29   A    
C49   H29   S    
C5    C56   A    
O15   Zn2   S    
O19   Zn2   S    
C46   H18   S    
C7    C8    A    
C19   N2    A    
C20   H34   S    
C12   C23   S    
C33   C39   S    
C50   O8    S    
C54   H46   S    
C36   C37   S    
C24   C26   A    
C43   O2    S    
C10   C17   A    
C23   C40   S    
C52   H39   S    
C17   H21   S    
C56   C57   A    
C47   H24   S    
C7    O3    S    
C52   O10   S    
C50   H32   S    
C23   H4    S    
C44   O3    S    
C53   H43   S    
C8    C9    A    
C22   C25   A    
C8    C14   A    
C56   H6    S    
C1    C15   S    
C47   H25   S    
C9    C10   A    
C5    C13   A    
C4    O15   A    
C51   H38   S    
C38   H3    S    
C33   O19   A    
C23   H5    S    
C36   O9    S    
C43   H11   S    
O1    Zn1   S    
C42   H10   S    
C49   H30   S    
C35   O8    S    
C2    C6    A    
C34   C41   S    
C1    O1    A    
C47   H22   S    
C11   H1    S    
C6    H7    S    
C53   H42   S    
C40   C45   S    
C54   O13   S    
C54   H48   S    
C34   C39   T    
C36   C40   S    
C35   C38   S    
C18   N1    A    
O14   Zn1   S    
C38   C41   S    
C53   O11   S    
C49   H31   S    
C46   H20   S    
N1    Zn1   S    
C48   O6    S    
C37   O2    S    
C25   C26   A    
C48   H26   S    
C38   O20   S    
C44   H17   S    
C31   O6    S    
C29   C30   A    
C3    C9    A    
C20   N1    A    
C31   C32   A    
C53   H44   S    
C44   H16   S    
C16   O17   A    
C16   O16   A    
C35   H52   S    
C20   C22   A    
C4    C55   S    
C19   C28   A    
C42   H9    S    
C51   O9    S    
C48   H28   S    
O18   Zn1   S    
C32   O7    S    
C21   N2    A    
C12   C41   S    
C15   C17   A    
C43   H13   S    
C54   H47   S    
C30   H50   S    
C27   C32   A    
C14   C15   A    
C28   C31   A    
C18   C27   A    
N2    Zn2   S    
C3    C5    A    
C46   H19   S    
C13   O5    S    
C2    C58   A    
C50   H35   S    
C6    C7    A    
C4    O14   A    
C25   C27   A    
C52   H41   S    
C26   C28   A    
C46   O4    S    
C2    C3    A    
C1    O12   A    
O16   Zn1   S    
C11   C13   A    
C57   C58   A    
C49   O7    S    
C12   O11   S    
C14   O4    S    
C52   H40   S    
C35   C40   S    
C16   C57   S    
C37   C41   S    
C44   H15   S    
C24   C30   A    
O17   Zn2   S    
C37   H2    S    
C10   C11   A    
C51   H36   S    
O12   Zn2   S    
C21   H45   S    
C50   H33   S    
C47   O5    S    
C12   O10   S    
C45   C55   T    
C58   O13   S    
C21   C24   A    
C36   H51   S    
C42   H8    S    
C48   H27   S    
C29   H49   S    
C42   O20   S    
C19   H23   S    
C51   H37   S    
