data_mof_unit_pretest_1992.cif
_audit_creation_date              2012-12-10T20:44:32-0500
_audit_creation_method            fapswitch 2.2
_symmetry_space_group_name_H-M    P1
_symmetry_Int_Tables_number       1
_space_group_crystal_system       triclinic
_cell_length_a                    28.386486
_cell_length_b                    26.045269
_cell_length_c                    13.112658
_cell_angle_alpha                 89.997561
_cell_angle_beta                  82.309958
_cell_angle_gamma                 89.996394
_cell_volume                      9607.44053079

loop_
_atom_site_label
_atom_site_type_symbol
_atom_type_description
_atom_site_fract_x
_atom_site_fract_y
_atom_site_fract_z
_atom_type_partial_charge
C1    C     C_R   0.589771 0.098879 0.510626 0.903235
C2    C     C_R   0.293328 0.170187 0.545515 0.576100
C3    C     C_R   0.793142 0.330147 0.544070 0.571102
C4    C     C_R   0.793459 0.670416 0.546255 0.576702
C5    C     C_R   0.305110 0.781657 0.499618 0.017515
C6    C     C_R   0.305134 0.218390 0.499593 0.017113
C7    C     C_R   0.805184 0.281629 0.499814 0.016456
C8    C     C_R   0.805164 0.718441 0.499472 0.017731
C9    C     C_R   0.351492 0.773056 0.452058 -0.317236
C10   C     C_R   0.351445 0.226880 0.451518 -0.316320
C11   C     C_R   0.851694 0.272862 0.453212 -0.321513
C12   C     C_R   0.589753 0.901103 0.510675 0.901187
C13   C     C_R   0.851371 0.726764 0.450645 -0.318229
C14   C     C_R   0.385549 0.811949 0.446754 0.606507
C15   C     C_R   0.385491 0.187973 0.446244 0.603856
C16   C     C_R   0.885733 0.311769 0.447810 0.601644
C17   C     C_R   0.885401 0.687841 0.445437 0.607025
C18   C     C_R   0.702921 0.166630 0.552501 0.676154
C19   C     C_R   0.703038 0.833562 0.551590 0.646674
C20   C     C_R   0.203008 0.666485 0.551613 0.646684
C21   C     C_R   0.203019 0.333535 0.551619 0.648609
C22   C     C_R   0.667908 0.129037 0.553580 -0.362470
C23   C     C_R   0.089751 0.598899 0.510675 0.901263
C24   C     C_R   0.668089 0.871143 0.552363 -0.367323
C25   C     C_R   0.168066 0.628897 0.552429 -0.366680
C26   C     C_R   0.168073 0.371121 0.552409 -0.362562
C27   C     C_R   0.695846 0.215644 0.510900 0.048197
C28   C     C_R   0.695648 0.784232 0.511849 0.108149
C29   C     C_R   0.195620 0.715795 0.511747 0.107720
C30   C     C_R   0.195632 0.284218 0.511807 0.107533
C31   C     C_R   0.625580 0.139433 0.513405 -0.295900
C32   C     C_R   0.625489 0.860471 0.513687 -0.259377
C33   C     C_R   0.125476 0.639539 0.513681 -0.259447
C34   C     C_R   0.089752 0.401103 0.510675 0.905507
C35   C     C_R   0.125481 0.360466 0.513687 -0.259945
C36   C     C_R   0.617975 0.188675 0.474587 0.683156
C37   C     C_R   0.617435 0.810933 0.476758 0.608769
C38   C     C_R   0.117422 0.689058 0.476642 0.608364
C39   C     C_R   0.117429 0.310940 0.476699 0.611892
C40   C     C_R   0.409763 0.901237 0.489872 0.950976
C41   C     C_R   0.409763 0.098768 0.489881 0.944403
C42   C     C_R   0.909769 0.401242 0.489870 0.944099
C43   C     C_R   0.909762 0.598774 0.489888 0.950344
C44   C     C_R   0.652643 0.226651 0.474100 -0.095481
C45   C     C_R   0.327057 0.868889 0.539698 0.503113
C46   C     C_R   0.652253 0.772639 0.476720 -0.087946
C47   C     C_R   0.152233 0.727356 0.476545 -0.087630
C48   C     C_R   0.152244 0.272643 0.476632 -0.087282
C49   C     C_R   0.477176 0.999339 0.777062 0.706678
C50   C     C_R   0.977176 0.500661 0.777062 0.706493
C51   C     C_R   0.522929 0.000102 0.223395 0.828844
C52   C     C_R   0.022930 0.499899 0.223395 0.829000
C53   C     C_2   0.531134 0.000937 0.111734 0.348407
C54   C     C_2   0.031135 0.499068 0.111735 0.348145
C55   C     C_2   0.496620 0.986610 0.057608 0.577766
C56   C     C_R   0.327136 0.131259 0.540288 0.502034
C57   C     C_2   0.996616 0.513386 0.057608 0.577331
C58   C     C_2   0.467568 0.995007 0.889426 0.569592
C59   C     C_2   0.967567 0.504991 0.889425 0.568907
C60   C     C_2   0.503777 0.991902 0.945116 -0.347040
C61   C     C_2   0.003775 0.508097 0.945116 -0.347186
C62   C     C_R   0.373663 0.860394 0.490663 -0.422370
C63   C     C_R   0.373668 0.139629 0.490703 -0.424462
C64   C     C_R   0.873692 0.360393 0.490671 -0.422749
C65   C     C_R   0.873673 0.639653 0.490727 -0.422617
C66   C     C_R   0.826955 0.369071 0.538729 0.501295
C67   C     C_R   0.827249 0.631470 0.541106 0.502832
C68   C     C_R   0.293235 0.829978 0.544956 0.576381
F1    F     F_    0.249327 0.839515 0.596417 -0.563651
F2    F     F_    0.954366 0.530980 0.106837 -0.596239
F3    F     F_    0.421673 0.993529 0.935449 -0.542952
F4    F     F_    0.921671 0.506466 0.935447 -0.543551
F5    F     F_    0.571933 0.022752 0.064686 -0.649651
F6    F     F_    0.071943 0.477267 0.064687 -0.649632
F7    F     F_    0.743019 0.155275 0.593897 -0.597791
F8    F     F_    0.743458 0.845259 0.591452 -0.599502
F9    F     F_    0.243419 0.654806 0.591534 -0.599116
F10   F     F_    0.243431 0.345221 0.591520 -0.597332
F11   F     F_    0.430198 0.801658 0.400289 -0.562949
F12   F     F_    0.249503 0.160791 0.597509 -0.563387
F13   F     F_    0.430066 0.198151 0.399218 -0.561293
F14   F     F_    0.930520 0.301317 0.402362 -0.565421
F15   F     F_    0.929865 0.697851 0.397593 -0.563115
F16   F     F_    0.576626 0.200400 0.438296 -0.569469
F17   F     F_    0.575445 0.799558 0.442875 -0.603294
F18   F     F_    0.075440 0.700412 0.442696 -0.603865
F19   F     F_    0.075444 0.299578 0.442778 -0.601457
F20   F     F_    0.749078 0.339870 0.594558 -0.565572
F21   F     F_    0.749752 0.661228 0.599009 -0.563152
F22   F     F_    0.313851 0.914931 0.583085 -0.524128
F23   F     F_    0.313988 0.085333 0.584270 -0.524638
F24   F     F_    0.813616 0.415310 0.581024 -0.525688
F25   F     F_    0.814188 0.585720 0.585975 -0.523862
F26   F     F_    0.454375 0.969004 0.106836 -0.596037
H1    H     H_    0.540146 0.994422 0.906954 0.186320
H2    H     H_    0.860914 0.763633 0.415594 0.239149
H3    H     H_    0.646170 0.303519 0.492256 0.251518
H4    H     H_    0.670185 0.284418 0.373125 0.224792
H5    H     H_    0.612703 0.719481 0.408241 0.272540
H6    H     H_    0.641486 0.696942 0.502531 0.244263
H7    H     H_    0.112696 0.780466 0.407877 0.272188
H8    H     H_    0.141443 0.803066 0.502164 0.244287
H9    H     H_    0.112705 0.219513 0.408044 0.272737
H10   H     H_    0.141468 0.196939 0.502336 0.244129
H11   H     H_    0.040145 0.505581 0.906954 0.186432
H12   H     H_    0.674184 0.091514 0.584771 0.236015
H13   H     H_    0.674637 0.908910 0.582103 0.235035
H14   H     H_    0.174613 0.591145 0.582254 0.235253
H15   H     H_    0.174618 0.408878 0.582195 0.235600
H16   H     H_    0.361162 0.735975 0.418118 0.239557
H17   H     H_    0.361063 0.263877 0.417131 0.240485
H18   H     H_    0.861482 0.235635 0.420108 0.239013
N1    N     N_2   0.271881 0.740787 0.501324 -0.028110
N2    N     N_3   0.644646 0.721782 0.439341 -0.362215
N3    N     N_3   0.144627 0.778191 0.439032 -0.361983
N4    N     N_3   0.144641 0.221799 0.439178 -0.361668
N5    N     N_2   0.271898 0.259249 0.501214 -0.027650
N6    N     N_2   0.771993 0.240725 0.501661 -0.024601
N7    N     N_2   0.771922 0.759285 0.500969 -0.028464
N8    N     N_2   0.729959 0.255539 0.508411 -0.062668
N9    N     N_2   0.729860 0.744419 0.509470 -0.034229
N10   N     N_2   0.229821 0.755624 0.509241 -0.034017
N11   N     N_2   0.229840 0.244397 0.509352 -0.034114
N12   N     N_3   0.643655 0.276438 0.434368 -0.324000
O1    O     O_3   0.499990 0.000000 0.500000 -0.561626
O2    O     O_R   0.950070 0.602520 0.433660 -0.565944
O3    O     O_R   0.588860 0.940050 0.570910 -0.650394
O4    O     O_R   0.588860 0.059950 0.570910 -0.644995
O5    O     O_R   0.088860 0.440050 0.570910 -0.647986
O6    O     O_R   0.088860 0.559950 0.570910 -0.650219
O7    O     O_R   0.401370 0.059920 0.548800 -0.571690
O8    O     O_R   0.401370 0.940080 0.548800 -0.573345
O9    O     O_R   0.901370 0.559920 0.548800 -0.572876
O10   O     O_R   0.901370 0.440080 0.548800 -0.572251
O11   O     O_R   0.520330 0.000000 0.732910 -0.667166
O12   O     O_3   0.999990 0.500000 0.500000 -0.561509
O13   O     O_R   0.020330 0.500000 0.732910 -0.667095
O14   O     O_R   0.518600 0.042600 0.271700 -0.612643
O15   O     O_R   0.518600 0.957400 0.271700 -0.627056
O16   O     O_R   0.018600 0.542600 0.271700 -0.626583
O17   O     O_R   0.018600 0.457400 0.271700 -0.613760
O18   O     O_R   0.442440 0.000000 0.723710 -0.569172
O19   O     O_R   0.942440 0.500000 0.723710 -0.569272
O20   O     O_R   0.559670 0.102510 0.446620 -0.568181
O21   O     O_R   0.559670 0.897490 0.446620 -0.568597
O22   O     O_R   0.059670 0.602510 0.446620 -0.568621
O23   O     O_R   0.059670 0.397490 0.446620 -0.564608
O24   O     O_R   0.450070 0.897480 0.433660 -0.566137
O25   O     O_R   0.450070 0.102520 0.433660 -0.573375
O26   O     O_R   0.950070 0.397480 0.433660 -0.573922
Zn1   Zn    Zn3+2 0.506960 0.939150 0.414470 1.101833
Zn2   Zn    Zn3+2 0.506960 0.060850 0.414470 1.103717
Zn3   Zn    Zn3+2 0.006960 0.439150 0.414470 1.102563
Zn4   Zn    Zn3+2 0.006960 0.560850 0.414470 1.101923
Zn5   Zn    Zn3+2 0.548670 0.000000 0.592090 0.992429
Zn6   Zn    Zn3+2 0.048670 0.500000 0.592090 0.992148
Zn7   Zn    Zn3+2 0.437380 0.000000 0.578960 1.123179
Zn8   Zn    Zn3+2 0.937380 0.500000 0.578960 1.122661

loop_
_geom_bond_atom_site_label_1
_geom_bond_atom_site_label_2
_ccdc_geom_bond_type
C11   H18   S    
C21   C26   A    
C18   F7    S    
O24   Zn1   S    
C39   F19   S    
C4    C8    A    
H5    N2    S    
C50   O13   A    
C40   C62   S    
C15   F13   S    
C12   O3    A    
C27   N8    S    
H4    N12   S    
C28   C46   A    
C8    C13   A    
C20   F9    S    
C38   F18   S    
C50   C59   S    
C30   C48   A    
C19   F8    S    
C34   C35   S    
H3    N12   S    
C3    C7    A    
C10   C15   A    
C5    C68   A    
O12   Zn6   S    
O1    Zn7   S    
C58   F3    S    
C41   O25   A    
C20   C25   A    
C58   C60   D    
C14   C62   A    
C45   C62   A    
C1    C31   S    
O11   Zn5   S    
O7    Zn7   S    
O9    Zn8   S    
C11   C16   A    
C43   O9    A    
H8    N3    S    
O1    Zn1   S    
O4    Zn5   S    
H10   N4    S    
C27   C44   A    
C56   F23   S    
N1    N10   D    
C34   O5    A    
C68   F1    S    
C23   C33   S    
O26   Zn3   S    
C21   F10   S    
C25   H14   S    
C1    O4    A    
C57   F2    S    
C61   H11   S    
C6    N5    S    
C59   F4    S    
C48   N4    S    
O12   Zn8   S    
C53   C55   D    
C40   O8    A    
C54   F6    S    
C55   C60   S    
C29   N10   S    
C7    N6    S    
C2    C6    A    
C55   F26   S    
C42   O26   A    
C43   O2    A    
C52   C54   S    
C7    C11   A    
C20   C29   A    
N7    N9    D    
C23   O22   A    
C59   C61   D    
C22   C31   A    
C46   N2    S    
C13   H2    S    
H6    N2    S    
C60   H1    S    
O25   Zn2   S    
O3    Zn5   S    
C41   O7    A    
C40   O24   A    
C28   N9    S    
C66   F24   S    
C65   C67   A    
C32   C37   A    
C44   N12   S    
C49   C58   S    
C23   O6    A    
C17   F15   S    
C64   C66   A    
C12   O21   A    
C35   C39   A    
C9    C14   A    
C24   C32   A    
C5    C9    A    
C45   F22   S    
O1    Zn2   S    
C4    C67   A    
O12   Zn4   S    
C34   O23   A    
O22   Zn4   S    
C43   C65   S    
C49   O18   A    
C45   C68   A    
C16   F14   S    
C56   C63   A    
C10   H17   S    
C24   H13   S    
O21   Zn1   S    
C14   F11   S    
C19   C28   A    
C26   H15   S    
C38   C47   A    
C47   N3    S    
O2    Zn4   S    
O10   Zn8   S    
C29   C47   A    
H7    N3    S    
C36   C44   A    
C3    C66   A    
C41   C63   S    
O18   Zn7   S    
C42   C64   S    
C50   O19   A    
O19   Zn8   S    
C4    F21   S    
C37   F17   S    
C9    H16   S    
C5    N1    S    
C3    F20   S    
C18   C22   A    
C53   F5    S    
C18   C27   A    
C52   O17   A    
C6    C10   A    
O5    Zn6   S    
O6    Zn6   S    
C57   C61   S    
C21   C30   A    
C17   C65   A    
O8    Zn7   S    
C13   C17   A    
C42   O10   A    
O14   Zn2   S    
H9    N4    S    
N5    N11   D    
O20   Zn2   S    
C1    O20   A    
C22   H12   S    
O12   Zn3   S    
O17   Zn3   S    
C36   F16   S    
O15   Zn1   S    
C52   O16   A    
C19   C24   A    
C49   O11   A    
O23   Zn3   S    
N6    N8    D    
C2    F12   S    
C51   O14   A    
C26   C35   A    
C30   N11   S    
O13   Zn6   S    
O16   Zn4   S    
C67   F25   S    
C15   C63   A    
C31   C36   A    
C33   C38   A    
C2    C56   A    
C16   C64   A    
C51   C53   S    
C37   C46   A    
C12   C32   S    
O1    Zn5   S    
C8    N7    S    
C25   C33   A    
C39   C48   A    
C54   C57   D    
C51   O15   A    
