data_mof_unit_pretest_561.cif
_audit_creation_date              2012-12-10T17:12:54-0500
_audit_creation_method            fapswitch 2.2
_symmetry_space_group_name_H-M    P1
_symmetry_Int_Tables_number       1
_space_group_crystal_system       triclinic
_cell_length_a                    14.312599
_cell_length_b                    12.960531
_cell_length_c                    11.793882
_cell_angle_alpha                 100.158654
_cell_angle_beta                  92.400787
_cell_angle_gamma                 91.194954
_cell_volume                      2150.67729142

loop_
_atom_site_label
_atom_site_type_symbol
_atom_type_description
_atom_site_fract_x
_atom_site_fract_y
_atom_site_fract_z
_atom_type_partial_charge
C1    C     C_R   0.501205 0.299913 0.478594 0.964197
C2    C     C_R   0.499912 0.700505 0.521652 0.948105
C3    C     C_R   0.469267 0.027532 0.534382 -0.188210
C4    C     C_R   0.551886 0.979876 0.487406 -0.183664
C5    C     C_R   0.408166 0.404750 0.023976 0.346423
C6    C     C_R   0.587726 0.600289 0.975387 0.312438
C7    C     C_R   0.419201 0.412229 0.145337 0.374745
C8    C     C_R   0.582826 0.585318 0.853865 0.402768
C9    C     C_R   0.546573 0.534270 0.154331 0.574135
C10   C     C_R   0.448906 0.475198 0.849405 0.639955
C11   C     C_R   0.534301 0.534342 0.033182 -0.357841
C12   C     C_R   0.464744 0.469000 0.968149 -0.263813
C13   C     C_R   0.331281 0.499772 0.501037 0.854573
C14   C     C_R   0.668713 0.499927 0.499016 0.868545
C15   C     C_1   0.228988 0.499518 0.502703 -0.113371
C16   C     C_1   0.770986 0.498941 0.497791 -0.098852
C17   C     C_1   0.143492 0.499232 0.502583 0.025708
C18   C     C_1   0.856488 0.498566 0.498634 0.037602
C19   C     C_1   0.042756 0.498877 0.501437 0.038699
C20   C     C_1   0.957222 0.498636 0.500157 0.041391
C21   C     C_R   0.495302 0.814228 0.534837 -0.264384
C22   C     C_R   0.513843 0.188021 0.468491 -0.253344
C23   C     C_R   0.620322 0.043742 0.445786 0.416613
C24   C     C_R   0.411893 0.972470 0.600268 0.453855
C25   C     C_R   0.599968 0.146790 0.435172 0.224101
C26   C     C_R   0.423571 0.865567 0.597440 0.242743
C27   C     C_R   0.447636 0.128968 0.514963 0.362278
C28   C     C_R   0.561373 0.870467 0.483072 0.360643
Cu1   Cu    Cu3+1 0.506360 0.507730 0.615930 1.062136
Cu2   Cu    Cu3+1 0.493640 0.492270 0.384070 1.062459
N1    N     N_R   0.515930 0.519350 0.790130 -0.295179
N2    N     N_R   0.484070 0.480650 0.209870 -0.265048
O1    O     O_R   0.504510 0.354460 0.582000 -0.556848
O2    O     O_R   0.495490 0.645540 0.418000 -0.545783
O3    O     O_R   0.493770 0.341410 0.386200 -0.504957
O4    O     O_R   0.506230 0.658590 0.613800 -0.526228
O5    O     O_R   0.381420 0.506530 0.597920 -0.556606
O6    O     O_R   0.618580 0.493470 0.402080 -0.548188
O7    O     O_R   0.370680 0.493470 0.402120 -0.538563
O8    O     O_R   0.629320 0.506530 0.597880 -0.527183
Cl1   Cl    Cl    0.648547 0.797258 0.404747 -0.561512
Cl2   Cl    Cl    0.333640 0.180145 0.529292 -0.484058
Cl3   Cl    Cl    0.343027 0.794540 0.666681 -0.612297
Cl4   Cl    Cl    0.684616 0.226759 0.383368 -0.583215
Cl5   Cl    Cl    0.737851 0.007212 0.424587 -0.449563
Cl6   Cl    Cl    0.334823 0.036459 0.701999 -0.456417
O9    O     O_3   0.358228 0.459151 0.803461 -0.567714
C29   C     C_3   0.313985 0.557963 0.813458 0.084735
H1    H     H_    0.254152 0.548641 0.749158 0.186968
H2    H     H_    0.361136 0.620488 0.791658 0.193760
C30   C     C_3   0.274410 0.596168 0.932379 -0.502680
H3    H     H_    0.219398 0.540398 0.949648 0.217422
H4    H     H_    0.330279 0.603791 0.001505 0.213481
C31   C     C_3   0.230834 0.703292 0.937398 -0.757216
H5    H     H_    0.284657 0.762586 0.924376 0.282385
H6    H     H_    0.201338 0.728411 0.023182 0.253661
H7    H     H_    0.173616 0.699306 0.870006 0.271465
O10   O     O_3   0.621922 0.587773 0.217142 -0.525881
C32   C     C_3   0.705002 0.532847 0.188565 0.127389
H8    H     H_    0.711737 0.509189 0.093915 0.145478
H9    H     H_    0.706547 0.460034 0.226175 0.155950
C33   C     C_3   0.789769 0.603383 0.235913 -0.256392
H10   H     H_    0.788698 0.675744 0.197514 0.267493
H11   H     H_    0.786377 0.626864 0.330726 0.247695
C34   C     C_3   0.881247 0.547933 0.208211 -0.913445
H12   H     H_    0.883534 0.474324 0.244130 0.264630
H13   H     H_    0.941185 0.599944 0.246868 0.271968
H14   H     H_    0.888230 0.529049 0.113405 0.268925
Cl7   Cl    Cl    0.657775 0.665325 0.789332 -0.532902
Cl8   Cl    Cl    0.353342 0.324296 0.210567 -0.565137
O11   O     O_3   0.357410 0.321013 0.957782 -0.524954
C35   C     C_3   0.259706 0.334008 0.965521 0.133158
H15   H     H_    0.232661 0.363887 0.888361 0.187050
H16   H     H_    0.239738 0.389393 0.043717 0.122501
C36   C     C_3   0.211547 0.227177 0.963459 -0.261572
H17   H     H_    0.225836 0.174217 0.881578 0.279499
H18   H     H_    0.239887 0.191302 0.036042 0.267753
C37   C     C_3   0.105954 0.237009 0.972738 -0.860734
H19   H     H_    0.089827 0.287723 0.055372 0.264183
H20   H     H_    0.073083 0.158198 0.970028 0.280853
H21   H     H_    0.075721 0.271057 0.899729 0.261804
O12   O     O_3   0.644290 0.681029 0.035961 -0.558284
C38   C     C_3   0.588940 0.770035 0.065638 0.114153
H22   H     H_    0.542423 0.758520 0.136018 0.173293
H23   H     H_    0.545056 0.785507 0.990178 0.144163
C39   C     C_3   0.652948 0.866141 0.107406 -0.278732
H24   H     H_    0.697494 0.853035 0.182642 0.280149
H25   H     H_    0.699453 0.878141 0.037414 0.244866
C40   C     C_3   0.596436 0.964432 0.141766 -0.794586
H26   H     H_    0.553918 0.980949 0.066380 0.261862
H27   H     H_    0.644694 0.032577 0.173228 0.299273
H28   H     H_    0.549275 0.954149 0.211620 0.253275

loop_
_geom_bond_atom_site_label_1
_geom_bond_atom_site_label_2
_ccdc_geom_bond_type
C21   C26   A    
C23   Cl5   S    
C19   C20   T    
C27   Cl2   S    
C7    Cl8   S    
C1    O1    A    
Cu1   O4    S    
C8    Cl7   S    
Cu1   Cu2   S    
Cu2   O3    S    
C6    O12   S    
C24   C26   A    
C37   H20   S    
Cu1   O1    S    
C28   Cl1   S    
Cu2   O6    S    
C18   C20   S    
C9    O10   S    
C33   H11   S    
C9    N2    A    
C10   N1    A    
C29   C30   S    
O9    C29   S    
C34   H13   S    
C22   C25   A    
C40   H27   S    
C13   O5    A    
C2    O2    A    
C29   H2    S    
C1    C22   S    
C3    C24   A    
C35   C36   S    
C25   Cl4   S    
C4    C28   A    
C26   Cl3   S    
C31   H6    S    
C32   H9    S    
Cu2   O2    S    
C30   H3    S    
C5    C12   A    
C35   H16   S    
C6    C11   A    
C5    C7    A    
C4    C23   A    
C37   H19   S    
C6    C8    A    
O10   C32   S    
C30   H4    S    
C36   H17   S    
C33   H10   S    
C14   O6    A    
C9    C11   A    
C38   H22   S    
C34   H14   S    
C2    C21   S    
C40   H28   S    
C36   H18   S    
C10   C12   A    
C16   C18   T    
C29   H1    S    
C38   H23   S    
C21   C28   A    
O12   C38   S    
C22   C27   A    
C13   C15   S    
C14   C16   S    
C3    C4    A    
C1    O3    A    
C2    O4    A    
C15   C17   T    
C31   H5    S    
C32   C33   S    
C7    N2    A    
C33   C34   S    
C39   H24   S    
C8    N1    A    
C35   H15   S    
C39   C40   S    
C11   C12   A    
C30   C31   S    
C24   Cl6   S    
C3    C27   A    
O11   C35   S    
Cu1   N1    S    
Cu2   N2    S    
C37   H21   S    
Cu1   O8    S    
C17   C19   S    
Cu2   O7    S    
C39   H25   S    
C23   C25   A    
C36   C37   S    
C13   O7    A    
C14   O8    A    
C32   H8    S    
C38   C39   S    
C5    O11   S    
C34   H12   S    
Cu1   O5    S    
C10   O9    S    
C40   H26   S    
C31   H7    S    
