data_mof_unit_pretest_1285.cif
_audit_creation_date              2013-03-05T15:50:50-0500
_audit_creation_method            fapswitch 2.2
_symmetry_space_group_name_H-M    P1
_symmetry_Int_Tables_number       1
_space_group_crystal_system       triclinic
_cell_length_a                    9.597888
_cell_length_b                    10.859232
_cell_length_c                    15.494756
_cell_angle_alpha                 87.540325
_cell_angle_beta                  73.99451
_cell_angle_gamma                 90.583702
_cell_volume                      1550.51053482

loop_
_atom_site_label
_atom_site_type_symbol
_atom_site_description
_atom_site_fract_x
_atom_site_fract_y
_atom_site_fract_z
_atom_type_partial_charge
O1    O     O_R   0.118810 0.319640 0.500010 -0.593652
O2    O     O_R   0.881240 0.319660 0.500000 -0.537609
C1    C     C_R   0.004111 0.263426 0.491594 0.822659
O3    O     O_R   0.055570 0.499980 0.629840 -0.589416
O4    O     O_R   0.818000 0.500010 0.629830 -0.539139
C2    C     C_R   0.918101 0.501116 0.672036 0.824686
Cu1   Cu    Cu3+1 0.140660 0.499990 0.500010 0.933293
Cu2   Cu    Cu3+1 0.859340 0.500010 0.499990 0.987269
O5    O     O_R   0.118760 0.680340 0.500000 -0.610160
O6    O     O_R   0.881190 0.680360 0.499990 -0.605045
O7    O     O_R   0.182000 0.499990 0.370170 -0.603497
O8    O     O_R   0.944430 0.500020 0.370160 -0.605551
C3    C     C_R   0.999924 0.737731 0.503974 0.787854
C4    C     C_R   0.082258 0.503536 0.327918 0.779634
C5    C     C_R   0.873503 0.504910 0.770460 -0.057040
C6    C     C_R   0.129791 0.521933 0.229722 -0.029889
C7    C     C_R   0.923609 0.475088 0.914373 -0.196063
C8    C     C_R   0.970748 0.477753 0.820954 -0.183778
C9    C     C_R   0.730548 0.534140 0.814129 -0.187041
C10   C     C_R   0.679790 0.531813 0.908458 0.088734
C11   C     C_R   0.778844 0.499820 0.958428 0.159856
C12   C     C_R   0.532454 0.554801 0.954350 0.069687
C13   C     C_R   0.484172 0.534326 0.049406 0.074714
C14   C     C_R   0.588075 0.508209 0.096729 -0.179782
C15   C     C_R   0.732394 0.491424 0.051845 -0.217958
C16   C     C_R   0.431747 0.597361 0.908665 -0.174552
C17   C     C_R   0.287006 0.612714 0.953899 -0.217705
C18   C     C_R   0.236278 0.583744 0.045679 0.164593
C19   C     C_R   0.333690 0.542181 0.094134 0.109525
C20   C     C_R   0.088590 0.595954 0.089664 -0.193762
C21   C     C_R   0.035605 0.565590 0.181271 -0.188908
C22   C     C_R   0.276378 0.507492 0.185578 -0.207343
H1    H     H_    0.807592 0.469038 0.090742 0.148224
H2    H     H_    0.343435 0.467438 0.224244 0.143853
H3    H     H_    0.922049 0.578647 0.214311 0.154036
H4    H     H_    0.213704 0.645803 0.916331 0.150633
H5    H     H_    0.999694 0.450838 0.952246 0.148200
H6    H     H_    0.082174 0.455743 0.788404 0.167153
H7    H     H_    0.660009 0.555116 0.772655 0.174363
H8    H     H_    0.562130 0.502435 0.169030 0.144729
H9    H     H_    0.461523 0.622753 0.837931 0.148913
H10   H     H_    0.014404 0.630526 0.053309 0.144843
C23   C     C_R   0.282588 0.124260 0.442992 -0.125714
H11   H     H_    0.299278 0.212795 0.406654 0.158240
C24   C     C_R   0.404973 0.066478 0.455370 -0.079145
H12   H     H_    0.510096 0.112731 0.432995 0.144782
C25   C     C_R   0.390765 0.951236 0.499539 -0.120010
H13   H     H_    0.484040 0.908978 0.514014 0.139133
C26   C     C_R   0.257088 0.888710 0.523092 -0.165272
H14   H     H_    0.251614 0.802308 0.560935 0.168555
C27   C     C_R   0.134849 0.940430 0.501460 0.117298
C28   C     C_R   0.143431 0.066524 0.474496 0.100801
C29   C     C_R   0.012416 0.129916 0.480842 -0.136803
C30   C     C_R   0.884198 0.062878 0.488702 -0.151501
H15   H     H_    0.781712 0.886931 0.499766 0.167112
C31   C     C_R   0.881747 0.935747 0.497555 -0.200657
C32   C     C_R   0.004871 0.872727 0.505118 -0.102308
C33   C     C_R   0.699927 0.662083 0.379395 -0.217358
H16   H     H_    0.812373 0.668895 0.373786 0.222473
C34   C     C_R   0.655705 0.742003 0.320357 -0.304621
H17   H     H_    0.735594 0.802732 0.274760 0.201333
C35   C     C_R   0.511359 0.744303 0.320054 0.330498
C36   C     C_R   0.411962 0.664412 0.380205 -0.228407
C37   C     C_R   0.452819 0.580539 0.440974 0.125796
C38   C     C_R   0.602253 0.579949 0.440754 0.145245
N1    N     N_R   0.648320 0.501210 0.499140 -0.255144
C39   C     C_R   0.546494 0.423529 0.556682 0.409119
H18   H     H_    0.321633 0.361619 0.601905 0.172859
C40   C     C_R   0.399117 0.423852 0.556059 -0.125355
N2    N     N_R   0.352470 0.501290 0.499110 -0.218173
H19   H     H_    0.785092 0.108564 0.487744 0.200804
N3    N     N_R   0.586470 0.340517 0.619140 0.145702
O9    O     O_R   0.599733 0.224703 0.601196 -0.397147
O10   O     O_R   0.557162 0.369445 0.702714 -0.381715
N4    N     N_R   0.465196 0.828064 0.259129 0.134341
O11   O     O_R   0.558132 0.902893 0.203828 -0.349322
O12   O     O_R   0.330011 0.830463 0.258240 -0.373067
H20   H     H_    0.303768 0.672308 0.377250 0.238071

loop_
_geom_bond_atom_site_label_1
_geom_bond_atom_site_label_2
_geom_bond_distance
_ccdc_geom_bond_type
C5    C8    1.399549 A    
H15   C31   1.083498 S    
Cu2   N1    2.029188 S    
C9    C10   1.406483 A    
C23   H11   1.080599 S    
Cu1   N2    2.029029 S    
Cu1   Cu2   2.700165 S    
C25   C26   1.393960 A    
C24   H12   1.082728 S    
C6    C21   1.399281 A    
C5    C9    1.398746 A    
C16   C17   1.388077 A    
C13   C19   1.424504 A    
C18   C19   1.417094 A    
C19   C22   1.404369 A    
O4    C2    1.302997 A    
O7    C4    1.300293 A    
C23   C28   1.418578 A    
C3    C32   1.467267 S    
C33   C34   1.386945 A    
C31   C32   1.401614 A    
C34   C35   1.387194 A    
C39   N3    1.425943 S    
O5    C3    1.293117 A    
C2    C5    1.468510 S    
C30   H19   1.080699 S    
H18   C40   1.082417 S    
C26   C27   1.420702 A    
C13   C14   1.415544 A    
C27   C32   1.427851 A    
C37   N2    1.384850 A    
N1    C39   1.378338 A    
O3    Cu1   1.951366 S    
C24   C25   1.387306 A    
C30   C31   1.380779 A    
C27   C28   1.409215 A    
C14   C15   1.385772 A    
N3    O10   1.300217 A    
C33   H16   1.060138 S    
C29   C30   1.396686 A    
C7    C11   1.403186 A    
C34   H17   1.083035 S    
C39   C40   1.417237 A    
C22   H2    1.076256 S    
Cu1   O7    1.940290 S    
N4    O11   1.301597 A    
C35   C36   1.398160 A    
N4    O12   1.301863 A    
C33   C38   1.413129 A    
C25   H13   1.082870 S    
Cu2   O8    1.951366 S    
C7    C8    1.391328 A    
C7    H5    1.083503 S    
C23   C24   1.392554 A    
C9    H7    1.074114 S    
O3    C2    1.301450 A    
O8    C4    1.303522 A    
C38   N1    1.380921 A    
C4    C6    1.467074 S    
C35   N4    1.442223 S    
C28   C29   1.421279 A    
Cu1   O5    1.971836 S    
C11   C15   1.390769 A    
O1    Cu1   1.967533 S    
O2    Cu2   1.971836 S    
C10   C12   1.426741 A    
N3    O9    1.299592 A    
O6    C3    1.310825 A    
O4    Cu2   1.940290 S    
C17   H4    1.084428 S    
C6    C22   1.398177 A    
C37   C38   1.433393 A    
C18   C20   1.403642 A    
O2    C1    1.310503 A    
C8    H6    1.083204 S    
C1    C29   1.466917 S    
C20   C21   1.392997 A    
C14   H8    1.077396 S    
C21   H3    1.082480 S    
C40   N2    1.359440 A    
C36   C37   1.416768 A    
C10   C11   1.419015 A    
Cu2   O6    1.967533 S    
C26   H14   1.077825 S    
C12   C16   1.416785 A    
C17   C18   1.391065 A    
C12   C13   1.423708 A    
C20   H10   1.083387 S    
O1    C1    1.293773 A    
C16   H9    1.076410 S    
C15   H1    1.083570 S    
C36   H20   1.056163 S    
