data_mof_unit_pretest_1703.cif
_audit_creation_date              2012-12-10T16:56:24-0500
_audit_creation_method            fapswitch 2.2
_symmetry_space_group_name_H-M    P1
_symmetry_Int_Tables_number       1
_space_group_crystal_system       triclinic
_cell_length_a                    18.763794
_cell_length_b                    18.792152
_cell_length_c                    18.716589
_cell_angle_alpha                 109.078943
_cell_angle_beta                  109.809044
_cell_angle_gamma                 109.163581
_cell_volume                      5102.83803013

loop_
_atom_site_label
_atom_site_type_symbol
_atom_type_description
_atom_site_fract_x
_atom_site_fract_y
_atom_site_fract_z
_atom_type_partial_charge
C1    C     C_R   0.616834 0.619139 0.497757 0.924645
C2    C     C_2   0.817263 0.505831 0.827963 -0.335270
C3    C     C_2   0.755075 0.578049 0.761966 -0.148604
C4    C     C_R   0.379956 0.499598 0.379610 0.914165
C5    C     C_2   0.695133 0.506024 0.685499 -0.332546
C6    C     C_2   0.261642 0.178596 0.506257 0.512814
C7    C     C_2   0.180779 0.166946 0.479958 -0.268856
C8    C     C_2   0.321076 0.242522 0.495221 -0.345397
C9    C     C_2   0.323279 0.318749 0.513259 0.256300
C10   C     C_R   0.011882 0.618940 0.130648 0.816135
C11   C     C_R   0.126868 0.499372 0.126503 0.886089
C12   C     C_3   0.181988 0.418992 0.203611 -0.237665
C13   C     C_R   0.006383 0.381321 0.886877 0.932172
C14   C     C_R   0.886098 0.502017 0.888440 0.947085
C15   C     C_R   0.996968 0.116983 0.618066 0.932639
C16   C     C_R   0.382172 0.381341 0.502124 0.853429
C17   C     C_R   0.881407 0.878656 0.498047 0.932627
C18   C     C_R   0.998877 0.878931 0.381749 0.828976
C19   C     C_R   0.118375 0.113773 0.494703 0.946175
C20   C     C_2   0.989035 0.737930 0.320412 0.443591
C21   C     C_2   0.989479 0.806608 0.312043 0.315846
C22   C     C_2   0.980467 0.666932 0.247985 -0.276707
C23   C     C_3   0.224582 0.479140 0.301753 0.490193
C24   C     C_2   0.030666 0.685498 0.212812 0.331083
C25   C     C_2   0.924020 0.185523 0.675480 -0.155346
C26   C     C_2   0.994422 0.177119 0.686921 -0.324781
C27   C     C_2   0.926231 0.246151 0.750280 -0.153276
C28   C     C_R   0.622824 0.502162 0.620782 0.934184
C29   C     C_2   0.001137 0.318587 0.813366 -0.330181
C30   C     C_3   0.324348 0.578185 0.300679 -0.214405
C31   C     C_3   0.233442 0.558261 0.290590 -0.223898
C32   C     C_3   0.193022 0.498681 0.192512 -0.042775
C33   C     C_3   0.282674 0.518940 0.201368 -0.140470
C34   C     C_3   0.313783 0.498951 0.312261 -0.009661
C35   C     C_3   0.273074 0.439634 0.214048 -0.227113
C36   C     C_2   0.742537 0.746331 0.420972 -0.146551
C37   C     C_2   0.818427 0.806327 0.494057 -0.314205
C38   C     C_2   0.681468 0.674002 0.421160 -0.154354
C39   C     C_2   0.676404 0.686819 0.493444 -0.334050
C40   C     C_2   0.828542 0.578063 0.823614 -0.140788
H1    H     H_    0.712001 0.751342 0.549670 0.156850
H2    H     H_    0.050672 0.209970 0.751723 0.159394
H3    H     H_    0.866087 0.232971 0.751899 0.164858
H4    H     H_    0.058751 0.337236 0.806594 0.159645
H5    H     H_    0.304630 0.535295 0.157925 0.152978
H6    H     H_    0.291158 0.391761 0.184512 0.166505
H7    H     H_    0.122103 0.354581 0.163435 0.157355
H8    H     H_    0.726670 0.748582 0.360561 0.167481
H9    H     H_    0.838597 0.798492 0.551402 0.157979
H10   H     H_    0.638505 0.611874 0.361460 0.167329
H11   H     H_    0.214586 0.605469 0.319907 0.146390
H12   H     H_    0.890402 0.637923 0.867601 0.170254
H13   H     H_    0.349330 0.150261 0.556813 0.331171
H14   H     H_    0.278757 0.395171 0.553135 0.358305
H15   H     H_    0.990834 0.677355 0.386354 0.336311
H16   H     H_    0.384285 0.642581 0.341699 0.152426
H17   H     H_    0.978629 0.860794 0.238846 0.340339
H18   H     H_    0.135599 0.771473 0.226239 0.349520
H19   H     H_    0.137227 0.449070 0.334248 0.329219
H20   H     H_    0.752923 0.449059 0.791334 0.157905
H21   H     H_    0.752444 0.637796 0.777583 0.167515
H22   H     H_    0.703403 0.449458 0.665736 0.157688
H23   H     H_    0.157728 0.196253 0.442543 0.147357
H24   H     H_    0.364657 0.227799 0.474860 0.134231
H25   H     H_    0.929582 0.601314 0.220971 0.121778
H26   H     H_    0.864028 0.145329 0.612870 0.167809
O1    O     O_R   0.591160 0.539400 0.449620 -0.615879
O2    O     O_R   0.050520 0.090460 0.641000 -0.628336
O3    O     O_R   0.857760 0.909540 0.448230 -0.624274
O4    O     O_R   0.589730 0.641530 0.550350 -0.630320
O5    O     O_R   0.961340 0.909540 0.551790 -0.612347
O6    O     O_R   0.949480 0.909540 0.359000 -0.646815
O7    O     O_R   0.053060 0.909550 0.462560 -0.564870
O8    O     O_R   0.038660 0.090460 0.448210 -0.639865
O9    O     O_R   0.142240 0.090460 0.551770 -0.551764
O10   O     O_R   0.408980 0.448930 0.357910 -0.639362
O11   O     O_R   0.407550 0.551060 0.458650 -0.600407
O12   O     O_R   0.056790 0.641480 0.096140 -0.626589
O13   O     O_R   0.410270 0.358470 0.449650 -0.634607
O14   O     O_R   0.408840 0.460600 0.550380 -0.608102
O15   O     O_R   0.592450 0.448940 0.541350 -0.623240
O16   O     O_R   0.591020 0.551070 0.642090 -0.614051
O17   O     O_R   0.954670 0.539370 0.096190 -0.633419
O18   O     O_3   0.287666 0.131253 0.541262 -0.739566
O19   O     O_3   0.277802 0.342023 0.552780 -0.765307
O20   O     O_3   0.992316 0.732531 0.393250 -0.786869
O21   O     O_3   0.969613 0.803451 0.232159 -0.765455
O22   O     O_3   0.102214 0.768024 0.257273 -0.739975
O23   O     O_R   0.047640 0.448900 0.098680 -0.632772
O24   O     O_3   0.197415 0.458448 0.356674 -0.767995
O25   O     O_R   0.149770 0.551010 0.098640 -0.626132
O26   O     O_R   0.957150 0.358410 0.917750 -0.616642
O27   O     O_R   0.059270 0.460520 0.917700 -0.620960
O28   O     O_R   0.864170 0.448890 0.915250 -0.620166
O29   O     O_R   0.966300 0.551000 0.915200 -0.610329
O30   O     O_R   0.946940 0.090450 0.537440 -0.613794
Zn1   Zn    Zn3+2 0.500950 0.431810 0.432740 0.958879
Zn2   Zn    Zn3+2 0.499050 0.568190 0.567260 0.990602
Zn3   Zn    Zn3+2 0.938780 0.431770 0.006970 0.957536
Zn4   Zn    Zn3+2 0.075160 0.568130 0.006910 0.966735
Zn5   Zn    Zn3+2 0.930840 1.000000 0.430850 0.966240
Zn6   Zn    Zn3+2 0.069160 1.000000 0.569150 1.040379

loop_
_geom_bond_atom_site_label_1
_geom_bond_atom_site_label_2
_ccdc_geom_bond_type
C21   O21   S    
C17   O3    A    
C27   C29   D    
C18   C21   S    
C33   H5    S    
C10   O12   A    
C39   H1    S    
C12   C23   S    
O23   Zn3   S    
H13   O18   S    
C13   C29   S    
C36   C37   D    
C9    C16   S    
O2    Zn6   S    
C30   C31   S    
C33   C35   S    
C2    H20   S    
O6    Zn5   S    
C10   O17   A    
C34   C35   S    
C9    O19   S    
C8    C9    D    
C20   O20   S    
O9    Zn6   S    
O25   Zn4   S    
O17   Zn3   S    
O30   Zn5   S    
C12   C32   S    
O16   Zn2   S    
C12   H7    S    
C3    H21   S    
C18   O6    A    
C4    C34   S    
C6    O18   S    
C30   C34   S    
C28   O16   A    
C15   O30   A    
O1    Zn1   S    
O29   Zn4   S    
C15   C26   S    
C6    C8    S    
C10   C24   S    
O10   Zn1   S    
C40   H12   S    
C30   H16   S    
H17   O21   S    
C13   O27   A    
C16   O14   A    
H19   O24   S    
C23   C31   S    
C22   H25   S    
C2    C40   D    
C5    C28   S    
C37   H9    S    
C11   O23   A    
C31   C32   S    
C23   C34   S    
C23   O24   S    
O11   Zn2   S    
C17   C37   S    
C12   C35   S    
C24   O22   S    
O27   Zn4   S    
C7    H23   S    
C8    H24   S    
O8    Zn5   S    
O7    Zn6   S    
O5    Zn6   S    
C20   C22   S    
C11   C32   S    
C17   O5    A    
C18   O7    A    
C7    C19   S    
C29   H4    S    
O12   Zn4   S    
C22   C24   D    
C14   O29   A    
C26   H2    S    
C27   H3    S    
C30   C33   S    
O14   Zn2   S    
C28   O15   A    
O13   Zn1   S    
C19   O8    A    
C25   H26   S    
C31   H11   S    
C3    C5    D    
H18   O22   S    
C3    C40   S    
H14   O19   S    
C6    C7    D    
C38   H10   S    
O3    Zn5   S    
C25   C27   S    
C1    O4    A    
C16   O13   A    
C32   C33   S    
H15   O20   S    
C36   C38   S    
C25   C26   D    
C4    O11   A    
C13   O26   A    
C38   C39   D    
O15   Zn1   S    
O28   Zn3   S    
C15   O2    A    
C19   O9    A    
C1    O1    A    
C5    H22   S    
C36   H8    S    
C2    C14   S    
C4    O10   A    
C1    C39   S    
C11   O25   A    
C20   C21   D    
C35   H6    S    
C14   O28   A    
O4    Zn2   S    
O26   Zn3   S    
