data_mof_unit_pretest_646.cif
_audit_creation_date              2012-12-10T16:53:08-0500
_audit_creation_method            fapswitch 2.2
_symmetry_space_group_name_H-M    P1
_symmetry_Int_Tables_number       1
_space_group_crystal_system       triclinic
_cell_length_a                    10.880524
_cell_length_b                    10.914578
_cell_length_c                    9.769192
_cell_angle_alpha                 90.108823
_cell_angle_beta                  88.872524
_cell_angle_gamma                 92.849858
_cell_volume                      1158.49371851

loop_
_atom_site_label
_atom_site_type_symbol
_atom_type_description
_atom_site_fract_x
_atom_site_fract_y
_atom_site_fract_z
_atom_type_partial_charge
C1    C     C_R   0.502774 0.265567 0.499148 0.828774
C2    C     C_R   0.054828 0.446537 0.617438 0.062524
C3    C     C_R   0.126188 0.505793 0.508911 -0.134729
C4    C     C_R   0.064820 0.561442 0.399966 0.154213
C5    C     C_R   0.937055 0.552716 0.397276 -0.201796
C6    C     C_R   0.868968 0.484794 0.495466 -0.157495
C7    C     C_2   0.534982 0.933344 0.390405 -0.168606
C8    C     C_2   0.516918 0.867090 0.504521 -0.371580
C9    C     C_2   0.552099 0.067760 0.393501 0.202708
C10   C     C_2   0.500496 0.132647 0.496221 -0.327659
C11   C     C_2   0.440341 0.415154 0.923226 0.218308
C12   C     C_R   0.261837 0.502283 0.502424 0.795755
C13   C     C_2   0.430326 0.422885 0.079379 0.242766
C14   C     C_R   0.503712 0.734596 0.500482 0.869198
C15   C     C_R   0.736406 0.493937 0.498485 0.798040
C16   C     C_R   0.102462 0.412441 0.745349 -0.185600
C17   C     C_R   0.034312 0.336064 0.836074 -0.155240
C18   C     C_R   0.915902 0.294552 0.803950 -0.130958
C19   C     C_R   0.861882 0.338410 0.687264 -0.142429
C20   C     C_R   0.927776 0.422199 0.599038 0.092493
Cu1   Cu    Cu3+1 0.500020 0.500020 0.638630 0.925147
Cu2   Cu    Cu3+1 0.499980 0.499980 0.361370 0.925294
H1    H     H_    0.448919 0.087676 0.579522 0.117765
H2    H     H_    0.565843 0.552247 0.103717 0.161917
H3    H     H_    0.187007 0.451036 0.784391 0.178830
H4    H     H_    0.863907 0.232808 0.872525 0.132122
H5    H     H_    0.768274 0.306453 0.666992 0.144753
N1    N     N_2   0.498640 0.498660 0.846910 -0.294382
N2    N     N_2   0.498610 0.498630 0.153040 -0.296470
O1    O     O_R   0.500020 0.321960 0.617040 -0.592650
O2    O     O_R   0.499980 0.321920 0.382900 -0.570490
O3    O     O_R   0.319670 0.500020 0.617100 -0.600682
O4    O     O_R   0.319630 0.499980 0.382950 -0.576565
O5    O     O_R   0.500020 0.678080 0.617100 -0.577392
O6    O     O_R   0.499980 0.678040 0.382960 -0.574796
O7    O     O_R   0.680370 0.500020 0.617050 -0.568914
O8    O     O_R   0.680330 0.499980 0.382900 -0.581526
C21   C     C_3   0.131759 0.638026 0.290311 -0.809044
H6    H     H_    0.067925 0.693779 0.232166 0.209616
H7    H     H_    0.200675 0.702912 0.337270 0.231289
H8    H     H_    0.177463 0.577786 0.215411 0.251506
C22   C     C_3   0.381194 0.301585 0.856093 -0.748928
H9    H     H_    0.303535 0.256411 0.913522 0.176062
H10   H     H_    0.336250 0.323497 0.760473 0.260879
H11   H     H_    0.451202 0.232113 0.840215 0.223704
H12   H     H_    0.532659 0.577084 0.893927 0.166204
C23   C     C_3   0.337681 0.332209 0.147144 -0.741573
H13   H     H_    0.244296 0.347858 0.109036 0.180523
H14   H     H_    0.363344 0.237054 0.124391 0.191621
H15   H     H_    0.328848 0.333643 0.257520 0.276994
H16   H     H_    0.073247 0.309898 0.932185 0.131077
H17   H     H_    0.889654 0.601081 0.318809 0.160354
H18   H     H_    0.541597 0.887869 0.291618 0.170466
H19   H     H_    0.519393 0.909359 0.605065 0.151832
C24   C     C_3   0.627802 0.127254 0.277844 -0.801454
H20   H     H_    0.676547 0.057744 0.217174 0.204500
H21   H     H_    0.567730 0.174855 0.206951 0.245277
H22   H     H_    0.698799 0.193152 0.319342 0.228448

loop_
_geom_bond_atom_site_label_1
_geom_bond_atom_site_label_2
_ccdc_geom_bond_type
C14   O5    A    
C24   H20   S    
C5    H17   S    
C9    C24   S    
Cu2   N2    S    
C10   H1    S    
C2    C16   A    
Cu1   O1    S    
C19   C20   A    
C18   H4    S    
C17   H16   S    
C2    C3    A    
C3    C12   S    
C7    C8    D    
C23   H14   S    
Cu1   O7    S    
Cu1   Cu2   S    
C12   O3    A    
C21   H7    S    
Cu2   O6    S    
C11   C13   S    
N1    H12   S    
C21   H6    S    
C22   H10   S    
C11   N1    D    
C21   H8    S    
C16   H3    S    
C9    C10   D    
C13   N2    D    
C1    O1    A    
Cu1   N1    S    
C4    C21   S    
C17   C18   A    
C23   H15   S    
C24   H21   S    
C12   O4    A    
C5    C6    A    
Cu1   O3    S    
C16   C17   A    
Cu2   O2    S    
C7    H18   S    
C2    C20   A    
C3    C4    A    
C15   O7    A    
C1    O2    A    
C6    C20   A    
C11   C22   S    
C7    C9    S    
C18   C19   A    
C22   H9    S    
C24   H22   S    
C8    H19   S    
C14   O6    A    
C13   C23   S    
Cu2   O4    S    
H2    N2    S    
C15   O8    A    
C8    C14   S    
Cu1   O5    S    
C19   H5    S    
C6    C15   S    
Cu2   O8    S    
C1    C10   S    
C23   H13   S    
C4    C5    A    
C22   H11   S    
