data_mof_unit_pretest_509.cif
_audit_creation_date              2012-12-10T20:28:09-0500
_audit_creation_method            fapswitch 2.2
_symmetry_space_group_name_H-M    P1
_symmetry_Int_Tables_number       1
_space_group_crystal_system       triclinic
_cell_length_a                    18.694997
_cell_length_b                    18.582164
_cell_length_c                    18.81845
_cell_angle_alpha                 109.321082
_cell_angle_beta                  109.376117
_cell_angle_gamma                 109.123629
_cell_volume                      5068.96321456

loop_
_atom_site_label
_atom_site_type_symbol
_atom_type_description
_atom_site_fract_x
_atom_site_fract_y
_atom_site_fract_z
_atom_type_partial_charge
C1    C     C_R   0.381692 0.501642 0.381044 0.892479
C2    C     C_R   0.827662 0.716193 0.802758 -0.099181
C3    C     C_R   0.079437 0.266135 0.748716 0.014083
C4    C     C_R   0.794130 0.171344 0.766113 -0.253550
C5    C     C_R   0.714917 0.162300 0.762562 0.503850
C6    C     C_R   0.677937 0.207185 0.730927 -0.107409
C7    C     C_R   0.719518 0.261282 0.704130 -0.222532
C8    C     C_R   0.798342 0.270732 0.708426 -0.157755
C9    C     C_R   0.835782 0.225494 0.739047 0.098014
C10   C     C_R   0.832241 0.802959 0.571284 -0.250631
C11   C     C_R   0.812776 0.808313 0.495164 -0.072043
C12   C     C_R   0.729422 0.750119 0.420023 0.036422
C13   C     C_R   0.667496 0.688678 0.424731 -0.247583
C14   C     C_R   0.687018 0.685693 0.501412 -0.063797
C15   C     C_R   0.769375 0.742340 0.575451 -0.023045
C16   C     C_R   0.626663 0.753868 0.296891 -0.219924
C17   C     C_R   0.602953 0.758408 0.220509 -0.265961
C18   C     C_R   0.656430 0.761454 0.182514 0.517537
C19   C     C_R   0.620830 0.619974 0.501004 0.896318
C20   C     C_R   0.732613 0.758538 0.221446 -0.131830
C21   C     C_R   0.755008 0.751613 0.296647 -0.194337
C22   C     C_R   0.703611 0.751743 0.336680 0.137027
C23   C     C_R   0.467555 0.786860 0.543546 -0.163990
C24   C     C_R   0.397914 0.704332 0.476762 -0.159015
C25   C     C_R   0.391611 0.668982 0.395044 0.123681
C26   C     C_R   0.452660 0.719229 0.379494 -0.220556
C27   C     C_R   0.521128 0.802480 0.445674 -0.217986
C28   C     C_R   0.529986 0.836066 0.528519 0.312366
C29   C     C_R   0.254371 0.577768 0.257248 -0.252607
C30   C     C_R   0.617616 0.497352 0.619224 0.945318
C31   C     C_R   0.187468 0.497076 0.185811 -0.076729
C32   C     C_R   0.183236 0.417797 0.178558 -0.015261
C33   C     C_R   0.247927 0.421471 0.244859 -0.245308
C34   C     C_R   0.315283 0.502327 0.316387 -0.065197
C35   C     C_R   0.318733 0.581544 0.323687 0.005921
C36   C     C_R   0.058700 0.267080 0.109876 -0.145758
C37   C     C_R   0.995737 0.184825 0.037577 -0.132332
C38   C     C_R   0.989708 0.165541 0.956788 -0.117650
C39   C     C_R   0.046696 0.228455 0.948212 -0.128345
C40   C     C_R   0.108919 0.311336 0.020068 -0.135631
C41   C     C_R   0.378905 0.380064 0.498932 0.882354
C42   C     C_R   0.115241 0.331267 0.101494 0.133131
C43   C     C_R   0.231133 0.526272 0.522339 -0.146476
C44   C     C_R   0.247145 0.462959 0.537674 -0.093745
C45   C     C_R   0.214919 0.380439 0.468063 0.110052
C46   C     C_R   0.165115 0.361501 0.383151 -0.180487
C47   C     C_R   0.148538 0.424795 0.368197 -0.125167
C48   C     C_R   0.181968 0.507241 0.437644 -0.111102
C49   C     C_R   0.170257 0.247397 0.482003 -0.238148
C50   C     C_R   0.186117 0.183309 0.495880 -0.075517
C51   C     C_R   0.265196 0.183554 0.509614 0.002080
C52   C     C_R   0.776328 0.754333 0.782672 -0.116071
C53   C     C_R   0.327940 0.249895 0.510772 -0.263696
C54   C     C_R   0.312316 0.314274 0.498341 -0.065449
C55   C     C_R   0.233500 0.313972 0.483900 -0.019340
C56   C     C_R   0.354188 0.135235 0.594209 -0.135105
C57   C     C_R   0.370953 0.069586 0.602565 -0.130297
C58   C     C_R   0.317001 0.982626 0.535774 -0.122315
C59   C     C_R   0.246350 0.961210 0.460399 -0.123685
C60   C     C_R   0.229425 0.026695 0.451848 -0.114987
C61   C     C_R   0.282814 0.114062 0.518967 0.132902
C62   C     C_2   0.743758 0.495107 0.821120 -0.170894
C63   C     C_R   0.758968 0.764896 0.709749 -0.108681
C64   C     C_2   0.820164 0.510284 0.824538 -0.358649
C65   C     C_2   0.682139 0.506181 0.759390 -0.171537
C66   C     C_2   0.677436 0.488107 0.682525 -0.325063
C67   C     C_R   0.995278 0.874241 0.381389 0.863737
C68   C     C_R   0.879548 0.877620 0.498065 0.865581
C69   C     C_R   0.999798 0.120910 0.619136 0.892678
C70   C     C_R   0.120207 0.118921 0.498424 0.888420
C71   C     C_R   0.002366 0.379843 0.882046 0.882688
C72   C     C_R   0.122266 0.498109 0.120802 0.874992
C73   C     C_R   0.002375 0.620694 0.122390 0.860795
C74   C     C_R   0.792047 0.736349 0.655758 0.095423
C75   C     C_R   0.883878 0.502390 0.885368 0.926710
C76   C     C_R   0.945828 0.707866 0.494925 -0.140224
C77   C     C_R   0.981953 0.735171 0.448243 -0.182758
C78   C     C_R   0.935333 0.691172 0.357183 0.022866
C79   C     C_R   0.854068 0.612729 0.313221 0.236900
C80   C     C_R   0.818806 0.586477 0.361425 -0.198934
C81   C     C_R   0.863731 0.634580 0.451528 -0.135312
C82   C     C_R   0.980678 0.665726 0.245998 -0.183536
C83   C     C_R   0.002944 0.687471 0.189153 -0.102699
C84   C     C_R   0.024766 0.771278 0.197532 -0.005375
C85   C     C_R   0.845405 0.700085 0.677531 -0.168844
C86   C     C_R   0.020982 0.830494 0.261898 -0.258097
C87   C     C_R   0.996226 0.807678 0.316815 -0.087330
C88   C     C_R   0.973817 0.723719 0.308613 0.003925
C89   C     C_R   0.136063 0.873047 0.181054 -0.158522
C90   C     C_R   0.164798 0.900182 0.129970 -0.138571
C91   C     C_R   0.111508 0.854940 0.040135 -0.125304
C92   C     C_R   0.029038 0.783150 0.001390 -0.123341
C93   C     C_R   0.999202 0.756720 0.052284 -0.092593
C94   C     C_R   0.053395 0.800455 0.142517 0.140009
C95   C     C_R   0.288789 0.265472 0.771223 0.288920
C96   C     C_R   0.862987 0.689957 0.750758 -0.158633
C97   C     C_R   0.213201 0.251009 0.778056 -0.184251
C98   C     C_R   0.161766 0.285609 0.746434 0.079866
C99   C     C_R   0.187392 0.337004 0.709993 -0.180666
C100  C     C_R   0.262754 0.352331 0.703782 -0.195013
C101  C     C_R   0.312592 0.315882 0.732983 -0.107023
C102  C     C_R   0.078103 0.328703 0.812641 -0.266838
C103  C     C_R   0.999733 0.314160 0.812542 -0.093911
C104  C     C_R   0.920606 0.238003 0.746117 0.028621
C105  C     C_R   0.922068 0.175017 0.682549 -0.262402
C106  C     C_R   0.000858 0.188570 0.684570 -0.077641
H1    H     H_    0.839609 0.706714 0.858401 0.131687
H2    H     H_    0.774720 0.761857 0.193281 0.155520
H3    H     H_    0.813908 0.748950 0.325249 0.142316
H4    H     H_    0.472785 0.812697 0.606838 0.136068
H5    H     H_    0.349645 0.667515 0.488986 0.143381
H6    H     H_    0.446851 0.693680 0.315937 0.141527
H7    H     H_    0.568083 0.840636 0.433099 0.132302
H8    H     H_    0.256173 0.638061 0.261322 0.157079
H9    H     H_    0.246281 0.361152 0.240415 0.157403
H10   H     H_    0.749346 0.775014 0.823172 0.125360
H11   H     H_    0.063115 0.280719 0.172151 0.113280
H12   H     H_    0.951964 0.135833 0.044306 0.130163
H13   H     H_    0.941307 0.101660 0.900962 0.119192
H14   H     H_    0.042853 0.212636 0.885895 0.142510
H15   H     H_    0.152812 0.359468 0.012547 0.109325
H16   H     H_    0.169708 0.556327 0.425811 0.122550
H17   H     H_    0.256928 0.590131 0.576110 0.117183
H18   H     H_    0.285553 0.478642 0.603564 0.114754
H19   H     H_    0.139680 0.298115 0.328788 0.128021
H20   H     H_    0.110197 0.410323 0.302820 0.138032
H21   H     H_    0.718461 0.793724 0.694560 0.132471
H22   H     H_    0.109386 0.246790 0.471789 0.162257
H23   H     H_    0.389073 0.251189 0.520774 0.147337
H24   H     H_    0.396399 0.202324 0.646431 0.125712
H25   H     H_    0.425817 0.086150 0.660796 0.144937
H26   H     H_    0.330105 0.931902 0.542315 0.130996
H27   H     H_    0.204823 0.893934 0.408552 0.136962
H28   H     H_    0.175063 0.009689 0.393033 0.097467
H29   H     H_    0.728109 0.478528 0.866240 0.167745
H30   H     H_    0.839960 0.536311 0.786320 0.150980
H31   H     H_    0.638688 0.526066 0.775843 0.166869
H32   H     H_    0.872347 0.678609 0.637322 0.120591
H33   H     H_    0.713912 0.458961 0.662297 0.150489
H34   H     H_    0.835710 0.613404 0.487639 0.140637
H35   H     H_    0.981935 0.743263 0.564995 0.135544
H36   H     H_    0.047648 0.789121 0.483649 0.168760
H37   H     H_    0.756652 0.527639 0.328830 0.137421
H38   H     H_    0.966815 0.602077 0.240461 0.173021
H39   H     H_    0.036884 0.895006 0.268944 0.147711
H40   H     H_    0.178604 0.907907 0.250531 0.125535
H41   H     H_    0.228690 0.955817 0.159979 0.132466
H42   H     H_    0.903458 0.661149 0.766693 0.122886
H43   H     H_    0.134193 0.875341 0.000503 0.125828
H44   H     H_    0.988734 0.747617 0.931846 0.123184
H45   H     H_    0.934944 0.701175 0.021395 0.105045
H46   H     H_    0.368808 0.326086 0.724375 0.127282
H47   H     H_    0.193405 0.211460 0.806415 0.124619
H48   H     H_    0.148334 0.364111 0.685320 0.143292
H49   H     H_    0.281828 0.391244 0.674817 0.148907
H50   H     H_    0.138434 0.388427 0.863062 0.164500
H51   H     H_    0.861884 0.115486 0.631354 0.152090
H52   H     H_    0.896012 0.847417 0.628446 0.163813
H53   H     H_    0.824238 0.137983 0.791384 0.115829
H54   H     H_    0.617099 0.200694 0.727809 0.139490
H55   H     H_    0.690894 0.296397 0.680544 0.160469
H56   H     H_    0.830460 0.313572 0.688350 0.130547
H57   H     H_    0.603318 0.642726 0.368374 0.143251
H58   H     H_    0.585402 0.753050 0.325563 0.142478
H59   H     H_    0.543480 0.760399 0.191607 0.132978
O1    O     O_R   0.408620 0.551720 0.460350 -0.615391
O2    O     O_R   0.949210 0.908400 0.357560 -0.621817
O3    O     O_R   0.959770 0.908340 0.551360 -0.633210
O4    O     O_R   0.856990 0.908380 0.448600 -0.616746
O5    O     O_R   0.050790 0.091560 0.642400 -0.629011
O6    O     O_R   0.948010 0.091600 0.539640 -0.620608
O7    O     O_R   0.143010 0.091580 0.551350 -0.600873
O8    O     O_R   0.040230 0.091620 0.448600 -0.627339
O9    O     O_R   0.055540 0.460120 0.912140 -0.631284
O10   O     O_R   0.952100 0.356700 0.912170 -0.603133
O11   O     O_R   0.145980 0.551740 0.094190 -0.626802
O12   O     O_R   0.409320 0.448300 0.357580 -0.628168
O13   O     O_R   0.042530 0.448320 0.094220 -0.615749
O14   O     O_R   0.054350 0.643370 0.094170 -0.613193
O15   O     O_R   0.950900 0.539950 0.094200 -0.623794
O16   O     O_R   0.963910 0.551750 0.912120 -0.631620
O17   O     O_R   0.860470 0.448330 0.912150 -0.605452
O18   O     O_R   0.591270 0.643330 0.551380 -0.622930
O19   O     O_R   0.591970 0.539910 0.448620 -0.626703
O20   O     O_R   0.590680 0.551700 0.642420 -0.613889
O21   O     O_R   0.591380 0.448280 0.539650 -0.631151
O22   O     O_R   0.408030 0.460090 0.551380 -0.630672
O23   O     O_R   0.408730 0.356670 0.448620 -0.623544
O24   O     O_R   0.051990 0.908360 0.460320 -0.629364
Zn1   Zn    Zn3+2 0.499530 0.569060 0.568620 0.941579
Zn2   Zn    Zn3+2 0.500470 0.430940 0.431380 0.945077
Zn3   Zn    Zn3+2 0.068630 0.999950 0.568590 0.943587
Zn4   Zn    Zn3+2 0.931370 0.000000 0.431370 0.965889
Zn5   Zn    Zn3+2 0.072290 0.569090 0.003150 0.950517
Zn6   Zn    Zn3+2 0.934150 0.430980 0.003190 0.975857
O25   O     O_3   0.636176 0.767323 0.107926 -0.784392
H60   H     H_    0.580640 0.768697 0.088734 0.324019
N1    N     N_2   0.601728 0.919115 0.596741 -0.293626
H61   H     H_    0.627047 0.960957 0.575941 0.222286
C107  C     C_3   0.668670 0.913721 0.657374 -0.795347
H62   H     H_    0.722431 0.980426 0.708697 0.228705
H63   H     H_    0.695612 0.878657 0.623548 0.238840
H64   H     H_    0.641927 0.879376 0.688527 0.240463
N2    N     N_2   0.811364 0.555631 0.222123 -0.316640
H65   H     H_    0.776236 0.490392 0.203163 0.221054
C108  C     C_3   0.762544 0.581202 0.168020 -0.786564
H66   H     H_    0.707870 0.580840 0.179454 0.242949
H67   H     H_    0.735211 0.533939 0.098914 0.242337
H68   H     H_    0.805507 0.646724 0.180596 0.251450
N3    N     N_2   0.337309 0.225164 0.798294 -0.310309
H69   H     H_    0.308864 0.181481 0.815937 0.215889
C109  C     C_3   0.429745 0.282711 0.857715 -0.820974
H70   H     H_    0.459815 0.244420 0.875797 0.244671
H71   H     H_    0.441000 0.334849 0.917443 0.245228
H72   H     H_    0.462160 0.312689 0.827154 0.237727
O26   O     O_3   0.672804 0.111193 0.790204 -0.778918
H73   H     H_    0.708747 0.087022 0.813858 0.325547

loop_
_geom_bond_atom_site_label_1
_geom_bond_atom_site_label_2
_ccdc_geom_bond_type
C8    C9    A    
C81   H34   S    
C29   H8    S    
C64   H30   S    
C93   C94   A    
O12   Zn2   S    
C60   H28   S    
C46   H19   S    
C36   C42   A    
C51   C61   S    
C72   O13   A    
O6    Zn4   S    
C97   C98   A    
C57   C58   A    
C26   H6    S    
C7    C8    A    
C45   C46   A    
C16   H58   S    
C40   H15   S    
C7    H55   S    
C26   C27   A    
C90   H41   S    
O23   Zn2   S    
C63   H21   S    
C30   O21   A    
C36   C37   A    
C84   C86   A    
C10   C15   A    
C9    C104  S    
C48   H16   S    
C38   C39   A    
C85   C96   A    
C108  H67   S    
O25   H60   S    
C4    H53   S    
C67   O2    A    
C39   H14   S    
C98   C99   A    
C99   H48   S    
O5    Zn3   S    
C2    H1    S    
C89   C94   A    
C56   C57   A    
C41   O22   A    
C17   C18   A    
C34   C35   A    
C69   O6    A    
O21   Zn2   S    
C23   H4    S    
C70   O7    A    
C77   H36   S    
C100  C101  A    
O22   Zn1   S    
C62   C64   D    
C103  C104  A    
C13   C14   A    
C46   C47   A    
C73   O15   A    
C1    O12   A    
C105  H51   S    
C37   H12   S    
C47   C48   A    
C53   C54   A    
C58   H26   S    
C107  H62   S    
C23   C24   A    
N1    H61   S    
C97   H47   S    
C43   C48   A    
C10   H52   S    
C65   H31   S    
C76   H35   S    
C80   H37   S    
C40   C42   A    
C59   C60   A    
C21   C22   A    
O2    Zn4   S    
C24   H5    S    
C12   C13   A    
O10   Zn6   S    
C104  C105  A    
C1    C34   S    
C13   H57   S    
N1    C107  S    
C76   C77   A    
C52   H10   S    
C3    C106  A    
C89   H40   S    
C96   H42   S    
C33   H9    S    
C66   H33   S    
C18   O25   S    
C30   O20   A    
O20   Zn1   S    
C24   C25   A    
C82   H38   S    
C19   O18   A    
C39   C40   A    
C91   H43   S    
C108  H66   S    
C16   C17   A    
O4    Zn4   S    
C56   H24   S    
C50   C51   A    
C58   C59   A    
C77   C78   A    
C5    O26   S    
C82   C83   A    
O7    Zn3   S    
C41   O23   A    
C60   C61   A    
C51   C53   A    
C62   H29   S    
C76   C81   A    
O24   Zn3   S    
C43   C44   A    
C37   C38   A    
C36   H11   S    
C68   O4    A    
C21   H3    S    
C83   C84   A    
C109  H72   S    
C11   C12   A    
O26   H73   S    
C20   C21   A    
C67   O24   A    
C33   C34   A    
O19   Zn2   S    
C56   C61   A    
C84   C94   S    
C23   C28   A    
N2    H65   S    
O16   Zn5   S    
C30   C66   S    
O15   Zn6   S    
C2    C52   A    
C25   C35   S    
C38   H13   S    
C27   H7    S    
C3    C102  A    
C31   C72   S    
C109  H71   S    
C49   C50   A    
N3    C109  S    
O8    Zn4   S    
C12   C22   S    
C93   H45   S    
C53   H23   S    
C65   C66   D    
C43   H17   S    
C75   O16   A    
O18   Zn1   S    
C102  H50   S    
C91   C92   A    
C11   C68   S    
C86   C87   A    
C47   H20   S    
C105  C106  A    
C78   C88   S    
C49   H22   S    
C71   C103  S    
C54   C55   A    
C72   O11   A    
C16   C22   A    
C62   C65   S    
C78   C79   A    
C95   N3    S    
C59   H27   S    
C14   C19   S    
C57   H25   S    
C31   C32   A    
C44   C45   A    
N2    C108  S    
C80   C81   A    
C52   C63   A    
C19   O19   A    
C6    H54   S    
C69   C106  S    
C95   C97   A    
O9    Zn5   S    
C6    C7    A    
C63   C74   A    
O13   Zn6   S    
C29   C35   A    
C101  H46   S    
C67   C87   S    
O3    Zn3   S    
C99   C100  A    
C32   C33   A    
C2    C96   A    
C25   C26   A    
C29   C31   A    
C49   C55   A    
C92   H44   S    
C108  H68   S    
C90   C91   A    
C5    C6    A    
C1    O1    A    
C107  H64   S    
C82   C88   A    
C92   C93   A    
C64   C75   S    
C71   O10   A    
C18   C20   A    
C69   O5    A    
N3    H69   S    
C74   C85   A    
C50   C70   S    
C102  C103  A    
O1    Zn1   S    
C70   O8    A    
C28   N1    S    
C41   C54   S    
C68   O3    A    
C10   C11   A    
C86   H39   S    
C79   C80   A    
C73   O14   A    
C4    C5    A    
C15   C74   S    
C100  H49   S    
C109  H70   S    
C45   C55   S    
C87   C88   A    
C107  H63   S    
C79   N2    S    
C44   H18   S    
C27   C28   A    
C8    H56   S    
C32   C42   S    
C14   C15   A    
C17   H59   S    
O17   Zn6   S    
O11   Zn5   S    
C4    C9    A    
C89   C90   A    
C75   O17   A    
C85   H32   S    
C73   C83   S    
C71   O9    A    
C3    C98   S    
C95   C101  A    
C20   H2    S    
O14   Zn5   S    
