data_mof_unit_pretest_1944.cif
_audit_creation_date              2012-12-11T16:03:05-0500
_audit_creation_method            fapswitch 2.2
_symmetry_space_group_name_H-M    P1
_symmetry_Int_Tables_number       1
_space_group_crystal_system       triclinic
_cell_length_a                    6.942709
_cell_length_b                    23.213732
_cell_length_c                    25.087711
_cell_angle_alpha                 106.661231
_cell_angle_beta                  89.72637
_cell_angle_gamma                 90.381521
_cell_volume                      3873.43686597

loop_
_atom_site_label
_atom_site_type_symbol
_atom_type_description
_atom_site_fract_x
_atom_site_fract_y
_atom_site_fract_z
_atom_type_partial_charge
O1    O     O_R   0.494320 0.441930 0.440920 -0.520422
O2    O     O_R   0.820780 0.446390 0.546550 -0.539464
O3    O     O_R   0.994330 0.558070 0.559080 -0.520158
C1    C     C_R   0.651322 0.434323 0.563217 0.692528
O4    O     O_R   0.823820 0.435090 0.440550 -0.523300
O5    O     O_R   0.997390 0.546680 0.452330 -0.536239
C2    C     C_R   0.654887 0.416676 0.418560 0.720986
O6    O     O_R   0.491260 0.453320 0.547670 -0.535880
O7    O     O_3   0.661870 0.536630 0.503990 -0.358910
V1    V     V_3+5 0.935460 0.493210 0.499260 1.410196
O8    O     O_R   0.327300 0.553610 0.453450 -0.538836
C3    C     C_R   0.158667 0.565603 0.436702 0.692122
O9    O     O_R   0.324250 0.564910 0.559450 -0.523379
C4    C     C_R   0.155283 0.583325 0.581439 0.721095
V2    V     V_3+5 0.435850 0.506790 0.500740 1.410345
O10   O     O_3   0.159570 0.463370 0.496010 -0.358949
C5    C     C_1   0.144597 0.635375 0.633460 -0.208736
C6    C     C_1   0.133143 0.678161 0.676779 0.009040
C7    C     C_1   0.118174 0.728712 0.728263 0.009065
C8    C     C_1   0.105259 0.771290 0.771703 0.011207
C9    C     C_1   0.090280 0.821815 0.823204 0.017861
C10   C     C_1   0.078802 0.864556 0.866553 -0.189688
C11   C     C_R   0.233809 0.900125 0.139611 0.141357
C12   C     C_R   0.238960 0.862618 0.174543 -0.140999
H1    H     H_    0.361994 0.865564 0.201579 0.166094
C13   C     C_R   0.087193 0.822818 0.175962 -0.021254
C14   C     C_R   0.927670 0.821308 0.141281 -0.118127
C15   C     C_R   0.922009 0.857971 0.105500 -0.163412
C16   C     C_R   0.074744 0.897645 0.103547 -0.089687
N1    N     N_R   0.940220 0.752288 0.223020 -0.273679
N2    N     N_R   0.949709 0.718142 0.257643 -0.281779
C17   C     C_R   0.116116 0.713821 0.284673 0.514371
N3    N     N_R   0.272475 0.745188 0.275437 -0.274451
N4    N     N_R   0.262821 0.779438 0.241010 -0.276695
C18   C     C_R   0.096643 0.783844 0.213999 0.530467
C19   C     C_R   0.304715 0.665939 0.346377 -0.126757
H2    H     H_    0.436327 0.685425 0.335728 0.139581
C20   C     C_R   0.315301 0.630325 0.382966 -0.159120
C21   C     C_R   0.148447 0.603979 0.398135 -0.053758
C22   C     C_R   0.970887 0.614171 0.375504 -0.154861
H3    H     H_    0.839159 0.594592 0.385979 0.120120
C23   C     C_R   0.960509 0.649474 0.338699 -0.132540
C24   C     C_R   0.127190 0.675930 0.323628 0.020290
C25   C     C_R   0.463420 0.385045 0.624821 -0.156231
C26   C     C_R   0.454227 0.349548 0.661574 -0.131210
H4    H     H_    0.315612 0.342436 0.678692 0.133750
C27   C     C_R   0.621545 0.323460 0.675810 0.020626
C28   C     C_R   0.798174 0.333896 0.652299 -0.128424
C29   C     C_R   0.807556 0.369617 0.615847 -0.158457
C30   C     C_R   0.640376 0.395706 0.601537 -0.053401
N5    N     N_R   0.770284 0.254835 0.723165 -0.275606
N6    N     N_R   0.763409 0.220767 0.757813 -0.275723
C31   C     C_R   0.599009 0.215951 0.785907 0.530783
N7    N     N_R   0.441439 0.246824 0.777699 -0.274531
N8    N     N_R   0.448145 0.280794 0.742856 -0.280547
C32   C     C_R   0.612851 0.285572 0.714786 0.514457
C33   C     C_R   0.434428 0.178598 0.859753 -0.118121
C34   C     C_R   0.430365 0.142173 0.895688 -0.162158
H5    H     H_    0.306812 0.145032 0.922826 0.146761
C35   C     C_R   0.583206 0.102945 0.897031 -0.089801
C36   C     C_R   0.741499 0.100954 0.860474 0.140710
C37   C     C_R   0.745112 0.138273 0.825305 -0.139990
C38   C     C_R   0.592501 0.177363 0.824294 -0.021022
C39   C     C_1   0.643884 0.364640 0.366541 -0.208750
C40   C     C_1   0.632463 0.321857 0.323218 0.008988
C41   C     C_1   0.617695 0.271308 0.271728 0.009119
C42   C     C_1   0.604991 0.228729 0.228281 0.011267
C43   C     C_1   0.590248 0.178206 0.176774 0.018025
C44   C     C_1   0.578880 0.135467 0.133420 -0.188943
O11   O     O_R   0.731800 0.046750 0.952380 -0.521710
O12   O     O_R   0.399050 0.064920 0.059460 -0.522332
O13   O     O_R   0.225670 0.953300 0.047660 -0.521958
C45   C     C_R   0.567990 0.083494 0.081360 0.746334
O14   O     O_R   0.402270 0.053620 0.953470 -0.532936
O15   O     O_R   0.228900 0.941920 0.940910 -0.519902
C46   C     C_R   0.571910 0.064741 0.935902 0.720866
O16   O     O_R   0.728560 0.058130 0.059130 -0.520306
O17   O     O_3   0.561250 0.963410 0.996040 -0.354749
V3    V     V_3+5 0.287590 0.006790 0.000740 1.480731
O18   O     O_R   0.898990 0.935020 0.940500 -0.522863
C47   C     C_R   0.068033 0.916536 0.918615 0.745607
O19   O     O_R   0.895770 0.946320 0.046490 -0.532212
C48   C     C_R   0.064540 0.935447 0.064277 0.720570
V4    V     V_3+5 0.787210 0.993120 0.999190 1.480733
O20   O     O_3   0.063420 0.036580 0.003960 -0.354857
I1    I     I_    0.468986 0.961493 0.149190 -0.404966
H6    H     H_    0.930197 0.314721 0.662275 0.138956
H7    H     H_    0.946440 0.376721 0.598866 0.121976
H8    H     H_    0.313904 0.208070 0.860093 0.147764
I2    I     I_    0.976836 0.040493 0.850595 -0.405845
H9    H     H_    0.867301 0.135686 0.797748 0.166315
H10   H     H_    0.807512 0.791353 0.141351 0.147719
H11   H     H_    0.797776 0.854809 0.078848 0.146438
H12   H     H_    0.454549 0.623538 0.399406 0.120973
H13   H     H_    0.821251 0.656189 0.322232 0.133123
H14   H     H_    0.331638 0.404435 0.614944 0.119311

loop_
_geom_bond_atom_site_label_1
_geom_bond_atom_site_label_2
_ccdc_geom_bond_type
N8    C32   A    
C22   H3    S    
C7    C8    T    
C4    C5    S    
O18   V4    S    
O12   V3    S    
C26   H4    S    
C25   C26   A    
C13   C14   A    
C33   H8    S    
N1    C18   A    
C11   C16   A    
C9    C10   T    
C19   H2    S    
C12   C13   A    
C16   C48   S    
O13   V3    S    
O5    C3    A    
C20   C21   A    
N4    C18   A    
C34   C35   A    
V2    O10   S    
C6    C7    S    
O8    V2    S    
N2    C17   A    
C43   C44   T    
C11   I1    S    
C11   C12   A    
C44   C45   S    
O1    V2    S    
O11   V4    S    
O7    V1    S    
C1    O6    A    
C22   C23   A    
C41   C42   T    
C36   I2    S    
C29   H7    S    
C33   C38   A    
C26   C27   A    
C23   H13   S    
C10   C47   S    
C12   H1    S    
C21   C22   A    
O4    C2    A    
O17   V3    S    
O15   C47   A    
O16   V4    S    
C34   H5    S    
C31   N7    A    
C35   C46   S    
C42   C43   S    
C1    C30   S    
C35   C36   A    
O2    C1    A    
C37   C38   A    
C25   H14   S    
C27   C28   A    
C37   H9    S    
C20   H12   S    
C5    C6    T    
C28   H6    S    
C14   H10   S    
V4    O20   S    
O3    C4    A    
O14   C46   A    
C28   C29   A    
C29   C30   A    
O6    V2    S    
O19   V4    S    
O14   V3    S    
O9    V2    S    
O11   C46   A    
C23   C24   A    
O2    V1    S    
V3    O20   S    
N6    C31   A    
O12   C45   A    
C25   C30   A    
N7    N8    A    
C15   C16   A    
O1    C2    A    
N5    C32   A    
O18   C47   A    
O5    V1    S    
O8    C3    A    
C39   C40   T    
C3    C21   S    
C19   C20   A    
O7    V2    S    
N5    N6    A    
O3    V1    S    
V1    O10   S    
C17   N3    A    
C31   C38   S    
C33   C34   A    
N1    N2    A    
C17   C24   S    
N3    N4    A    
C36   C37   A    
C2    C39   S    
O13   C48   A    
O17   V4    S    
C13   C18   S    
O4    V1    S    
C8    C9    S    
C40   C41   S    
C14   C15   A    
C45   O16   A    
C15   H11   S    
C19   C24   A    
O19   C48   A    
O9    C4    A    
O15   V3    S    
C27   C32   S    
