data_mof_unit_pretest_1063.cif
_audit_creation_date              2012-12-11T16:28:24-0500
_audit_creation_method            fapswitch 2.2
_symmetry_space_group_name_H-M    P1
_symmetry_Int_Tables_number       1
_space_group_crystal_system       triclinic
_cell_length_a                    17.250321
_cell_length_b                    7.262005
_cell_length_c                    14.489595
_cell_angle_alpha                 89.988799
_cell_angle_beta                  94.634359
_cell_angle_gamma                 89.998636
_cell_volume                      1809.20490514

loop_
_atom_site_label
_atom_site_type_symbol
_atom_type_description
_atom_site_fract_x
_atom_site_fract_y
_atom_site_fract_z
_atom_type_partial_charge
O1    O     O_R   0.663460 0.361760 0.165970 -0.529387
O2    O     O_R   0.336540 0.638240 0.834030 -0.529392
O3    O     O_R   0.836540 0.861760 0.334030 -0.529415
O4    O     O_R   0.163460 0.138240 0.665970 -0.529415
O5    O     O_R   0.827100 0.689870 0.163730 -0.533905
O6    O     O_R   0.172900 0.310130 0.836270 -0.533897
O7    O     O_R   0.672900 0.189870 0.336270 -0.533889
O8    O     O_R   0.327100 0.810130 0.663730 -0.533907
C1    C     C_R   0.853947 0.523446 0.144413 0.724773
C2    C     C_R   0.146053 0.476554 0.855587 0.724762
C3    C     C_R   0.646050 0.023433 0.355581 0.724795
C4    C     C_R   0.353949 0.976567 0.644419 0.724804
O9    O     O_R   0.663490 0.691370 0.155500 -0.540037
O10   O     O_R   0.336510 0.308630 0.844500 -0.540037
O11   O     O_R   0.836510 0.191370 0.344500 -0.540004
O12   O     O_R   0.163490 0.808630 0.655500 -0.540000
O13   O     O_R   0.671770 0.863320 0.325740 -0.537546
O14   O     O_R   0.328230 0.136680 0.674260 -0.537546
O15   O     O_R   0.828230 0.363320 0.174260 -0.537552
O16   O     O_R   0.171770 0.636680 0.825740 -0.537555
C5    C     C_R   0.638264 0.523917 0.130290 0.725881
C6    C     C_R   0.361737 0.476082 0.869708 0.725874
C7    C     C_R   0.861738 0.023888 0.369702 0.725873
C8    C     C_R   0.138256 0.976114 0.630307 0.725934
O17   O     O_3   0.752910 0.528800 0.305860 -0.377287
O18   O     O_3   0.247090 0.471200 0.694140 -0.377270
O19   O     O_3   0.747090 0.028800 0.194140 -0.377329
O20   O     O_3   0.252910 0.971200 0.805860 -0.377331
V1    V     V_3+5 0.749460 0.803010 0.239640 1.373869
V2    V     V_3+5 0.250540 0.196990 0.760360 1.373889
V3    V     V_3+5 0.750540 0.303010 0.260360 1.373954
V4    V     V_3+5 0.249460 0.696990 0.739640 1.374003
C9    C     C_1   0.469104 0.993916 0.530410 0.031452
C10   C     C_1   0.530895 0.006084 0.469588 0.031459
C11   C     C_1   0.030895 0.493898 0.969589 0.031382
C12   C     C_1   0.969103 0.506097 0.030408 0.031378
C13   C     C_R   0.014322 0.976138 0.304795 0.007444
C14   C     C_R   0.985671 0.023796 0.695198 0.007411
C15   C     C_R   0.485702 0.476155 0.195190 0.007421
C16   C     C_R   0.514300 0.523810 0.804807 0.007420
C17   C     C_R   0.074444 0.873520 0.271094 0.431875
C18   C     C_R   0.925586 0.126496 0.728918 0.431923
C19   C     C_R   0.425673 0.373307 0.228946 0.431898
C20   C     C_R   0.574337 0.626619 0.771045 0.431881
C21   C     C_R   0.134386 0.808573 0.333333 0.090809
C22   C     C_R   0.865685 0.191645 0.666689 0.090817
C23   C     C_R   0.365795 0.307997 0.166742 0.090793
C24   C     C_R   0.634216 0.691916 0.833246 0.090797
C25   C     C_R   0.141069 0.877346 0.425050 0.086239
C26   C     C_R   0.858974 0.122950 0.574954 0.086172
C27   C     C_R   0.359035 0.376688 0.074986 0.086129
C28   C     C_R   0.640970 0.623271 0.925009 0.086131
C29   C     C_R   0.072689 0.946584 0.464869 -0.017191
C30   C     C_R   0.927321 0.053526 0.535130 -0.017195
C31   C     C_R   0.427344 0.446309 0.035140 -0.017240
C32   C     C_R   0.572658 0.553675 0.964856 -0.017226
C33   C     C_R   0.005393 0.980614 0.402558 -0.044800
C34   C     C_R   0.994605 0.019390 0.597438 -0.044803
C35   C     C_R   0.494622 0.480570 0.097432 -0.044757
C36   C     C_R   0.505379 0.519415 0.902565 -0.044757
C37   C     C_R   0.067959 0.978819 0.562545 -0.084994
C38   C     C_R   0.932040 0.021207 0.437456 -0.084982
C39   C     C_R   0.432043 0.478701 0.937466 -0.085035
C40   C     C_R   0.567958 0.521294 0.062532 -0.085035
C41   C     C_1   0.416606 0.984854 0.582118 -0.177570
C42   C     C_1   0.583394 0.015145 0.417881 -0.177554
C43   C     C_1   0.083394 0.484821 0.917885 -0.177597
C44   C     C_1   0.916604 0.515177 0.082113 -0.177610
C45   C     C_3   0.222015 0.883426 0.473121 -0.744147
H1    H     H_    0.267674 0.879045 0.423488 0.200439
H2    H     H_    0.232333 0.017069 0.508750 0.177925
H3    H     H_    0.231621 0.762926 0.519266 0.227037
C46   C     C_3   0.778035 0.117209 0.526864 -0.743889
H4    H     H_    0.732371 0.121790 0.576481 0.200369
H5    H     H_    0.768523 0.237734 0.480722 0.227099
H6    H     H_    0.767624 0.983607 0.491236 0.177797
C47   C     C_3   0.278089 0.382165 0.026883 -0.743553
H7    H     H_    0.232415 0.377387 0.076489 0.200289
H8    H     H_    0.267594 0.515776 0.991250 0.177680
H9    H     H_    0.268656 0.261637 0.980742 0.227100
C48   C     C_3   0.721909 0.617806 0.973118 -0.743634
H10   H     H_    0.767587 0.622613 0.923518 0.200314
H11   H     H_    0.731331 0.738327 0.019260 0.227102
H12   H     H_    0.732405 0.484199 0.008750 0.177705
O21   O     O_3   0.072719 0.837044 0.176625 -0.548318
C49   C     C_3   0.132082 0.937318 0.136707 0.072415
H13   H     H_    0.185469 0.852111 0.137427 0.143057
H14   H     H_    0.145804 0.070331 0.172761 0.111308
C50   C     C_3   0.107031 0.982316 0.036135 -0.698334
H15   H     H_    0.057753 0.080705 0.032205 0.222824
H16   H     H_    0.156097 0.046676 0.002942 0.182784
H17   H     H_    0.089530 0.855249 0.997606 0.228488
O22   O     O_3   0.927312 0.162872 0.823393 -0.548325
C51   C     C_3   0.867912 0.062659 0.863265 0.072374
H18   H     H_    0.854194 0.929652 0.827204 0.111316
H19   H     H_    0.814534 0.147894 0.862502 0.143056
C52   C     C_3   0.892911 0.017659 0.963848 -0.698342
H20   H     H_    0.910404 0.144723 0.002385 0.228483
H21   H     H_    0.843821 0.953327 0.997007 0.182768
H22   H     H_    0.942183 0.919247 0.967810 0.222841
O23   O     O_3   0.427405 0.337015 0.323439 -0.548321
C53   C     C_3   0.367963 0.437176 0.363249 0.072231
H23   H     H_    0.314608 0.351851 0.362513 0.143053
H24   H     H_    0.354205 0.570130 0.327117 0.111422
C54   C     C_3   0.392936 0.482332 0.463814 -0.698200
H25   H     H_    0.442217 0.580708 0.467732 0.222884
H26   H     H_    0.343839 0.546762 0.496907 0.182719
H27   H     H_    0.410413 0.355320 0.502438 0.228449
O24   O     O_3   0.572599 0.662911 0.676552 -0.548331
C55   C     C_3   0.632029 0.562735 0.636729 0.072336
H28   H     H_    0.645797 0.429788 0.672867 0.111331
H29   H     H_    0.685383 0.648055 0.637444 0.143045
C56   C     C_3   0.607033 0.517567 0.536172 -0.698169
H30   H     H_    0.589495 0.644562 0.497560 0.228452
H31   H     H_    0.656139 0.453242 0.503046 0.182733
H32   H     H_    0.557785 0.419093 0.532273 0.222845
C57   C     C_3   0.808230 0.329555 0.698801 -0.804285
H33   H     H_    0.834210 0.413165 0.757599 0.229549
H34   H     H_    0.791171 0.427329 0.641912 0.208070
H35   H     H_    0.756107 0.257359 0.720671 0.192165
C58   C     C_3   0.191930 0.670830 0.301248 -0.804107
H36   H     H_    0.165968 0.586983 0.242518 0.229491
H37   H     H_    0.243991 0.743228 0.279299 0.192177
H38   H     H_    0.209108 0.573218 0.358187 0.208017
C59   C     C_3   0.691603 0.829963 0.801071 -0.804227
H39   H     H_    0.665587 0.913423 0.742212 0.229534
H40   H     H_    0.708594 0.927871 0.857902 0.208044
H41   H     H_    0.743773 0.757885 0.779256 0.192136
C60   C     C_3   0.308418 0.169924 0.198906 -0.804259
H42   H     H_    0.334426 0.086494 0.257778 0.229519
H43   H     H_    0.256234 0.241970 0.220696 0.192134
H44   H     H_    0.291457 0.071994 0.142074 0.208044
C61   C     C_3   0.969517 0.101471 0.236084 -0.652858
H45   H     H_    0.916532 0.032164 0.204557 0.227286
H46   H     H_    0.956231 0.233436 0.269766 0.197495
H47   H     H_    0.004755 0.142825 0.178943 0.197470
C62   C     C_3   0.030444 0.898363 0.763882 -0.652930
H48   H     H_    0.083423 0.967618 0.795454 0.227267
H49   H     H_    0.995179 0.856952 0.820987 0.197475
H50   H     H_    0.043740 0.766443 0.730165 0.197503
C63   C     C_3   0.530415 0.601743 0.263821 -0.652885
H51   H     H_    0.583392 0.532567 0.295478 0.227275
H52   H     H_    0.543708 0.733623 0.230038 0.197507
H53   H     H_    0.495103 0.643225 0.320864 0.197394
C64   C     C_3   0.469582 0.398226 0.736181 -0.652876
H54   H     H_    0.416606 0.467404 0.704524 0.227276
H55   H     H_    0.504890 0.356733 0.679138 0.197401
H56   H     H_    0.456289 0.266350 0.769968 0.197501

loop_
_geom_bond_atom_site_label_1
_geom_bond_atom_site_label_2
_ccdc_geom_bond_type
O17   V3    S    
O1    C5    A    
C8    C37   S    
C16   C36   A    
C31   C35   A    
O19   V1    S    
C18   O22   S    
O13   V1    S    
C46   H4    S    
O3    C7    A    
C11   C12   S    
O4    V2    S    
O15   V3    S    
C10   C42   T    
C19   O23   S    
C64   H54   S    
C9    C41   T    
C33   C38   A    
C47   H7    S    
O7    C3    A    
C54   H26   S    
C35   C40   A    
O23   C53   S    
C16   C64   S    
C23   C60   S    
C36   C39   A    
O9    V1    S    
C14   C18   A    
C24   C28   A    
C57   H34   S    
C30   C34   A    
O4    C8    A    
C49   H14   S    
O1    V3    S    
C53   C54   S    
O2    V4    S    
C18   C22   A    
C45   H2    S    
C55   H28   S    
C58   H38   S    
C52   H21   S    
C24   C59   S    
C14   C34   A    
C29   C37   A    
C1    O15   A    
C7    C38   S    
C15   C63   S    
C2    O16   A    
C5    C40   S    
C31   C39   A    
O2    C6    A    
C61   H47   S    
C32   C40   A    
O14   V2    S    
C11   C43   T    
C50   H16   S    
C3    C42   S    
C56   H32   S    
C20   O24   S    
C34   C37   A    
O11   C7    A    
C6    C39   S    
C62   H48   S    
O12   C8    A    
C25   C45   S    
O10   C6    A    
C46   H5    S    
C53   H23   S    
O10   V2    S    
C64   H55   S    
C52   H20   S    
O5    V1    S    
C47   H8    S    
C62   H50   S    
O7    V3    S    
O8    V4    S    
O24   C55   S    
C26   C46   S    
C29   C33   A    
C49   H13   S    
C15   C19   A    
C30   C38   A    
C51   C52   S    
C21   C58   S    
O21   C49   S    
C48   H10   S    
C32   C36   A    
C22   C57   S    
C45   H3    S    
C51   H19   S    
C27   C47   S    
O5    C1    A    
C59   H41   S    
C62   H49   S    
C4    C41   S    
C28   C48   S    
C21   C25   A    
O8    C4    A    
C15   C35   A    
C9    C10   S    
O9    C5    A    
C51   H18   S    
O22   C51   S    
C26   C30   A    
C54   H27   S    
C50   H17   S    
C53   H24   S    
C55   C56   S    
C58   H36   S    
O6    V2    S    
C59   H39   S    
C46   H6    S    
C13   C61   S    
C57   H35   S    
C48   H12   S    
C64   H56   S    
C59   H40   S    
C56   H30   S    
O16   V4    S    
C47   H9    S    
C3    O13   A    
C52   H22   S    
C49   C50   S    
C48   H11   S    
C23   C27   A    
C12   C44   T    
O11   V3    S    
C63   H53   S    
O12   V4    S    
C17   O21   S    
C54   H25   S    
C22   C26   A    
C60   H44   S    
C63   H52   S    
C60   H42   S    
C1    C44   S    
C2    C43   S    
C63   H51   S    
O3    V1    S    
C61   H45   S    
C25   C29   A    
O20   V2    S    
C14   C62   S    
C27   C31   A    
C13   C17   A    
C45   H1    S    
C55   H29   S    
C58   H37   S    
O6    C2    A    
C28   C32   A    
C16   C20   A    
C4    O14   A    
C61   H46   S    
C17   C21   A    
C60   H43   S    
C50   H15   S    
C57   H33   S    
C19   C23   A    
O18   V4    S    
C13   C33   A    
C20   C24   A    
C56   H31   S    
