data_mof_unit_pretest_737.cif
_audit_creation_date              2012-12-11T14:03:48-0500
_audit_creation_method            fapswitch 2.2
_symmetry_space_group_name_H-M    P1
_symmetry_Int_Tables_number       1
_space_group_crystal_system       triclinic
_cell_length_a                    19.07731
_cell_length_b                    10.988628
_cell_length_c                    18.898325
_cell_angle_alpha                 90.226728
_cell_angle_beta                  90.194173
_cell_angle_gamma                 90.106429
_cell_volume                      3961.66060908

loop_
_atom_site_label
_atom_site_type_symbol
_atom_type_description
_atom_site_fract_x
_atom_site_fract_y
_atom_site_fract_z
_atom_type_partial_charge
C1    C     C_R   0.239091 0.466130 0.647284 0.605756
C2    C     C_R   0.761491 0.469597 0.354642 0.535360
C3    C     C_R   0.739152 0.965914 0.647423 0.606496
C4    C     C_R   0.261489 0.969594 0.354640 0.535165
C5    C     C_2   0.295934 0.863227 0.541233 -0.065401
C6    C     C_2   0.711147 0.870215 0.460091 -0.165517
C7    C     C_2   0.795949 0.363249 0.541238 -0.065476
C8    C     C_2   0.210685 0.369745 0.460030 -0.166185
C9    C     C_R   0.006866 0.669447 0.424564 -0.024807
C10   C     C_R   0.996035 0.656942 0.573263 -0.020523
C11   C     C_R   0.507100 0.169510 0.424411 -0.024797
C12   C     C_R   0.496316 0.156943 0.573110 -0.020869
C13   C     C_R   0.995432 0.896593 0.433464 0.274639
C14   C     C_R   0.958157 0.872803 0.576685 0.296086
C15   C     C_R   0.495853 0.396642 0.433294 0.274317
C16   C     C_R   0.458672 0.372976 0.576550 0.296544
C17   C     C_R   0.967535 0.994343 0.470899 -0.008565
C18   C     C_R   0.947767 0.981714 0.540998 -0.026466
C19   C     C_R   0.468220 0.494546 0.470788 -0.008161
C20   C     C_R   0.448514 0.482000 0.540909 -0.024979
C21   C     C_R   0.984455 0.769503 0.539261 -0.021396
C22   C     C_R   0.996563 0.778422 0.464895 -0.029929
C23   C     C_R   0.484806 0.269563 0.539110 -0.021654
C24   C     C_R   0.496889 0.278479 0.464741 -0.029675
C25   C     C_R   0.001940 0.549647 0.531377 -0.033879
C26   C     C_R   0.020461 0.559585 0.460144 -0.031673
C27   C     C_R   0.502378 0.049658 0.531197 -0.033874
C28   C     C_R   0.520839 0.059701 0.459951 -0.031740
C29   C     C_R   0.992934 0.431699 0.559561 -0.135151
C30   C     C_R   0.046270 0.455859 0.424204 -0.131520
C31   C     C_R   0.493560 0.931618 0.559331 -0.134914
C32   C     C_R   0.546740 0.956121 0.423941 -0.131302
C33   C     C_R   0.017820 0.328507 0.523820 0.283455
C34   C     C_R   0.044326 0.340295 0.455525 0.286774
C35   C     C_R   0.518660 0.828593 0.523577 0.283761
C36   C     C_R   0.545071 0.840548 0.455258 0.287133
C37   C     C_2   0.256952 0.934361 0.914436 0.270413
C38   C     C_2   0.757177 0.911812 0.076226 0.288035
C39   C     C_2   0.756951 0.434376 0.914430 0.270406
C40   C     C_2   0.257171 0.411829 0.076233 0.288003
C41   C     C_2   0.250674 0.924341 0.078101 0.255642
C42   C     C_2   0.754680 0.900033 0.913187 0.217840
C43   C     C_2   0.750676 0.424321 0.078110 0.255702
C44   C     C_2   0.254679 0.400052 0.913192 0.217809
C45   C     C_R   0.228167 0.877233 0.649072 0.527747
C46   C     C_R   0.771957 0.878325 0.350147 0.589154
C47   C     C_R   0.728167 0.377232 0.649071 0.527785
C48   C     C_R   0.272011 0.378157 0.350273 0.588971
C49   C     C_2   0.232924 0.013357 0.032114 -0.162754
C50   C     C_2   0.799966 0.955154 0.957573 -0.164664
C51   C     C_2   0.732945 0.513335 0.032116 -0.162771
C52   C     C_2   0.299950 0.455201 0.957582 -0.164670
C53   C     C_2   0.213234 0.993881 0.958715 0.199184
C54   C     C_2   0.811250 0.918095 0.029426 0.192780
C55   C     C_2   0.713224 0.493829 0.958731 0.199193
C56   C     C_2   0.311242 0.418135 0.029431 0.192799
C57   C     C_2   0.003061 0.655681 0.922450 0.289959
C58   C     C_2   0.011051 0.662696 0.084358 0.296958
C59   C     C_2   0.503062 0.155683 0.922451 0.289935
C60   C     C_2   0.511053 0.162696 0.084359 0.296988
C61   C     C_2   0.009641 0.566703 0.040733 -0.033005
C62   C     C_2   0.031441 0.575608 0.967960 -0.036763
C63   C     C_2   0.509641 0.066702 0.040734 -0.033001
C64   C     C_2   0.531441 0.075606 0.967960 -0.036764
C65   C     C_R   0.028328 0.653715 0.645246 0.532573
C66   C     C_R   0.972674 0.656376 0.353903 0.521066
C67   C     C_R   0.528389 0.153708 0.645197 0.532606
C68   C     C_R   0.472716 0.156384 0.353860 0.521192
C69   C     C_R   0.239560 0.464018 0.849002 0.596903
C70   C     C_R   0.760764 0.465317 0.149828 0.607081
C71   C     C_R   0.739561 0.964015 0.849001 0.596952
C72   C     C_R   0.260765 0.965325 0.149823 0.607027
C73   C     C_R   0.228396 0.876063 0.851511 0.615651
C74   C     C_R   0.773745 0.871534 0.146571 0.636108
C75   C     C_R   0.728395 0.376062 0.851511 0.615740
C76   C     C_R   0.273744 0.371536 0.146572 0.636080
C77   C     C_R   0.029619 0.651890 0.850704 0.522882
C78   C     C_R   0.972268 0.652701 0.150498 0.537677
C79   C     C_R   0.529619 0.151891 0.850704 0.522890
C80   C     C_R   0.472269 0.152701 0.150498 0.537640
C81   C     C_2   0.254521 0.931260 0.583311 0.279109
C82   C     C_2   0.745135 0.939070 0.412593 0.224749
C83   C     C_2   0.754517 0.431262 0.583310 0.279265
C84   C     C_2   0.245290 0.438556 0.412924 0.225342
C85   C     C_2   0.250024 0.912738 0.423944 0.287901
C86   C     C_2   0.749990 0.900233 0.581890 0.269448
C87   C     C_2   0.750034 0.412740 0.423948 0.288077
C88   C     C_2   0.249941 0.400548 0.581673 0.269166
C89   C     C_2   0.305633 0.893428 0.466516 -0.037133
C90   C     C_2   0.700263 0.912610 0.531792 -0.131595
C91   C     C_2   0.805645 0.393445 0.466520 -0.037183
C92   C     C_2   0.199747 0.411417 0.531905 -0.132080
Cr1   Cr    Cr6+3 0.113970 0.508630 0.747920 1.056216
Cr2   Cr    Cr6+3 0.886030 0.508630 0.252080 1.056064
Cr3   Cr    Cr6+3 0.613970 0.008630 0.747920 1.056323
Cr4   Cr    Cr6+3 0.386030 0.008630 0.252080 1.056007
Cr5   Cr    Cr6+3 0.269200 0.666740 0.749850 1.055658
Cr6   Cr    Cr6+3 0.730800 0.666740 0.250150 1.051201
Cr7   Cr    Cr6+3 0.769200 0.166740 0.749850 1.055499
Cr8   Cr    Cr6+3 0.230800 0.166740 0.250150 1.050969
Cr9   Cr    Cr6+3 0.112300 0.820070 0.749800 1.108560
Cr10  Cr    Cr6+3 0.887700 0.820070 0.250200 1.109007
Cr11  Cr    Cr6+3 0.612300 0.320070 0.749800 1.108545
Cr12  Cr    Cr6+3 0.387700 0.320070 0.250200 1.109129
O1    O     O_R   0.043230 0.549300 0.667990 -0.531789
O2    O     O_R   0.956770 0.549300 0.332010 -0.521025
O3    O     O_R   0.543230 0.049300 0.667990 -0.531800
O4    O     O_R   0.456770 0.049300 0.332010 -0.521004
O5    O     O_R   0.262920 0.788600 0.824420 -0.481046
O6    O     O_R   0.737080 0.788600 0.175580 -0.501569
O7    O     O_R   0.762920 0.288600 0.824420 -0.481035
O8    O     O_R   0.237080 0.288600 0.175580 -0.501494
O9    O     O_R   0.167530 0.905110 0.830340 -0.457584
O10   O     O_R   0.832470 0.905110 0.169660 -0.464248
O11   O     O_R   0.667530 0.405110 0.830340 -0.457541
O12   O     O_R   0.332470 0.405110 0.169660 -0.464284
O13   O     O_R   0.054010 0.748440 0.822860 -0.485645
O14   O     O_R   0.945990 0.748440 0.177140 -0.474637
O15   O     O_R   0.554010 0.248440 0.822860 -0.485590
O16   O     O_R   0.445990 0.248440 0.177140 -0.474646
O17   O     O_3   0.165160 0.665150 0.749190 -0.289282
O18   O     O_3   0.834840 0.665150 0.250810 -0.284643
O19   O     O_3   0.665160 0.165150 0.749190 -0.289314
O20   O     O_3   0.334840 0.165150 0.250810 -0.284594
O21   O     O_R   0.178620 0.457600 0.674100 -0.525795
O22   O     O_R   0.821380 0.457600 0.325900 -0.516784
O23   O     O_R   0.678620 0.957600 0.674100 -0.525281
O24   O     O_R   0.321380 0.957600 0.325900 -0.516793
O25   O     O_R   0.284680 0.542100 0.669460 -0.483936
O26   O     O_R   0.715320 0.542100 0.330540 -0.498739
O27   O     O_R   0.784680 0.042100 0.669460 -0.485004
O28   O     O_R   0.215320 0.042100 0.330540 -0.499095
O29   O     O_R   0.262860 0.790390 0.676650 -0.539096
O30   O     O_R   0.737140 0.790390 0.323350 -0.542055
O31   O     O_R   0.762860 0.290390 0.676650 -0.539087
O32   O     O_R   0.237140 0.290390 0.323350 -0.542250
O33   O     O_R   0.167460 0.907030 0.670940 -0.494129
O34   O     O_R   0.832540 0.907030 0.329060 -0.462672
O35   O     O_R   0.667460 0.407030 0.670940 -0.494217
O36   O     O_R   0.332540 0.407030 0.329060 -0.462263
O37   O     O_R   0.053950 0.750220 0.675100 -0.454789
O38   O     O_R   0.946050 0.750220 0.324900 -0.472830
O39   O     O_R   0.553950 0.250220 0.675100 -0.454681
O40   O     O_R   0.446050 0.250220 0.324900 -0.472755
O41   O     O_R   0.043300 0.547370 0.827390 -0.528541
O42   O     O_R   0.956700 0.547370 0.172610 -0.537417
O43   O     O_R   0.543300 0.047370 0.827390 -0.528567
O44   O     O_R   0.456700 0.047370 0.172610 -0.537435
O45   O     O_R   0.178690 0.455820 0.821860 -0.463933
O46   O     O_R   0.821310 0.455820 0.178140 -0.476925
O47   O     O_R   0.678690 0.955820 0.821860 -0.463988
O48   O     O_R   0.321310 0.955820 0.178140 -0.476922
O49   O     O_R   0.284750 0.540170 0.828860 -0.538837
O50   O     O_R   0.715250 0.540170 0.171140 -0.535442
O51   O     O_R   0.784750 0.040170 0.828860 -0.538791
O52   O     O_R   0.215250 0.040170 0.171140 -0.535462
H1    H     H_    0.359025 0.903802 0.447589 0.103154
H2    H     H_    0.655129 0.970739 0.540989 0.117636
H3    H     H_    0.859035 0.403831 0.447591 0.103230
H4    H     H_    0.154004 0.467872 0.541474 0.118975
O53   O     O_3   0.147961 0.033431 0.936219 -0.630702
H5    H     H_    0.123376 0.072076 0.976652 0.350844
O54   O     O_3   0.879481 0.892172 0.049977 -0.642703
H6    H     H_    0.912179 0.919045 0.012453 0.368742
O55   O     O_3   0.647908 0.533239 0.936280 -0.630704
H7    H     H_    0.623328 0.571846 0.976729 0.350837
O56   O     O_3   0.379476 0.392218 0.049975 -0.642694
H8    H     H_    0.412169 0.419082 0.012445 0.368732
O57   O     O_3   0.257175 0.801874 0.062131 -0.673914
H9    H     H_    0.233801 0.784389 0.016429 0.337952
O58   O     O_3   0.717525 0.795438 0.928631 -0.657834
H10   H     H_    0.742342 0.751640 0.966728 0.330421
O59   O     O_3   0.757160 0.301846 0.062151 -0.673913
H11   H     H_    0.733846 0.284373 0.016416 0.337946
O60   O     O_3   0.217540 0.295438 0.928634 -0.657850
H12   H     H_    0.242358 0.251658 0.966737 0.330426
O61   O     O_3   0.326339 0.909882 0.931267 -0.699780
H13   H     H_    0.343745 0.971599 0.965484 0.331385
O62   O     O_3   0.687994 0.939110 0.060648 -0.710947
H14   H     H_    0.686242 0.995963 0.020224 0.326593
O63   O     O_3   0.826355 0.409977 0.931232 -0.699829
H15   H     H_    0.843747 0.471694 0.965457 0.331380
O64   O     O_3   0.187985 0.439111 0.060658 -0.710984
H16   H     H_    0.186226 0.495963 0.020234 0.326585
H17   H     H_    0.989278 0.478860 0.057137 0.125701
H18   H     H_    0.069409 0.508285 0.950488 0.126145
H19   H     H_    0.489277 0.978860 0.057138 0.125701
H20   H     H_    0.569405 0.008278 0.950487 0.126164
O65   O     O_3   0.041860 0.770741 0.063187 -0.652057
H21   H     H_    0.039747 0.829536 0.103006 0.341245
O66   O     O_3   0.952006 0.736854 0.943251 -0.673237
H22   H     H_    0.937811 0.784675 0.901182 0.321923
O67   O     O_3   0.541862 0.270740 0.063188 -0.651991
H23   H     H_    0.539749 0.329534 0.103008 0.341260
O68   O     O_3   0.452014 0.236866 0.943255 -0.673227
H24   H     H_    0.437819 0.284689 0.901186 0.321905
H25   H     H_    0.318375 0.778038 0.559403 0.098998
H26   H     H_    0.702045 0.773955 0.450172 0.190064
H27   H     H_    0.818413 0.278083 0.559417 0.098758
H28   H     H_    0.200934 0.273829 0.449657 0.190484
O69   O     O_3   0.183219 0.892087 0.449436 -0.667423
H29   H     H_    0.149324 0.920368 0.413655 0.356938
O70   O     O_3   0.809724 0.830679 0.574166 -0.700351
H30   H     H_    0.807404 0.781864 0.530099 0.336149
O71   O     O_3   0.683234 0.392063 0.449441 -0.667625
H31   H     H_    0.649339 0.420368 0.413669 0.357141
O72   O     O_3   0.310364 0.333065 0.573353 -0.699885
H32   H     H_    0.307830 0.283234 0.529676 0.336175
O73   O     O_3   0.231030 0.043499 0.560140 -0.661938
H33   H     H_    0.203244 0.081794 0.598406 0.351885
O74   O     O_3   0.764560 0.059175 0.424390 -0.693304
H34   H     H_    0.736678 0.094096 0.463607 0.330022
O75   O     O_3   0.730998 0.543474 0.560127 -0.661412
H35   H     H_    0.703203 0.581763 0.598387 0.352387
O76   O     O_3   0.265303 0.558204 0.425292 -0.692711
H36   H     H_    0.237403 0.593098 0.464507 0.330038
H37   H     H_    0.961887 0.081857 0.445468 0.206961
H38   H     H_    0.923619 0.057557 0.568237 0.168400
H39   H     H_    0.462701 0.582100 0.445374 0.206702
H40   H     H_    0.424526 0.557962 0.568182 0.168401
O77   O     O_3   0.023809 0.922488 0.368078 -0.662711
H41   H     H_    0.055118 0.854981 0.353817 0.316810
O78   O     O_3   0.934981 0.868877 0.645807 -0.643371
H42   H     H_    0.918388 0.785481 0.656255 0.340878
O79   O     O_3   0.524087 0.422375 0.367821 -0.663033
H43   H     H_    0.555308 0.354775 0.353507 0.316856
O80   O     O_3   0.435369 0.369061 0.645628 -0.643244
H44   H     H_    0.418509 0.285771 0.655947 0.340544
H45   H     H_    0.067452 0.464786 0.371335 0.127311
H46   H     H_    0.967765 0.419228 0.610277 0.132347
H47   H     H_    0.567799 0.965184 0.371028 0.127267
H48   H     H_    0.468345 0.918913 0.610001 0.132355
O81   O     O_3   0.020490 0.216517 0.556095 -0.676551
H49   H     H_    0.003633 0.224665 0.605477 0.309775
O82   O     O_3   0.067568 0.237647 0.420480 -0.646599
H50   H     H_    0.083727 0.261017 0.372591 0.320377
O83   O     O_3   0.521592 0.716613 0.555844 -0.676527
H51   H     H_    0.504819 0.724672 0.605259 0.309729
O84   O     O_3   0.568488 0.738046 0.420186 -0.646385
H52   H     H_    0.584585 0.761532 0.372296 0.320560
H53   H     H_    0.226675 0.106375 0.050841 0.116479
H54   H     H_    0.829586 0.035536 0.942466 0.152158
H55   H     H_    0.726718 0.606364 0.050833 0.116440
H56   H     H_    0.329554 0.535603 0.942479 0.152199

loop_
_geom_bond_atom_site_label_1
_geom_bond_atom_site_label_2
_ccdc_geom_bond_type
Cr2   O42   S    
C81   O73   S    
O58   H10   S    
Cr6   O50   S    
C16   O80   S    
O55   H7    S    
C6    C82   D    
C87   C91   D    
Cr9   O9    S    
O69   H29   S    
C14   C18   A    
C7    C83   D    
O78   H42   S    
C70   O46   A    
C44   O60   S    
Cr5   O29   S    
O70   H30   S    
C67   O39   A    
C45   C81   S    
C80   O16   A    
O53   H5    S    
O82   H50   S    
C33   O81   S    
C57   C62   D    
C4    O28   A    
Cr3   O23   S    
O71   H31   S    
C76   O12   A    
C15   C19   A    
O67   H23   S    
C12   C23   A    
C59   C64   D    
C50   C54   S    
C15   O79   S    
C60   C63   D    
Cr6   O6    S    
C32   C36   A    
C30   H45   S    
C78   O14   A    
O84   H52   S    
C1    O21   A    
C29   H46   S    
C57   O66   S    
C77   O13   A    
C52   H56   S    
C3    O23   A    
C9    C22   A    
C13   O77   S    
Cr4   O48   S    
C29   C33   A    
C11   C24   A    
C73   O9    A    
Cr4   O24   S    
C17   C18   A    
Cr10  O34   S    
C41   C49   D    
C63   H19   S    
C9    C66   S    
C87   O71   S    
Cr5   O17   S    
Cr1   O1    S    
C5    C81   D    
Cr12  O12   S    
Cr3   O47   S    
Cr9   O37   S    
C85   C89   D    
C39   C55   D    
C88   C92   D    
C40   C56   D    
C79   O15   A    
C9    C26   A    
C23   C24   A    
Cr12  O40   S    
Cr1   O41   S    
C8    C92   S    
C39   C75   S    
C54   O54   S    
O81   H49   S    
C91   H3    S    
Cr10  O14   S    
C84   O76   S    
C85   O69   S    
C46   O34   A    
C40   O64   S    
C37   C53   D    
C44   C52   D    
C58   C61   D    
Cr4   O4    S    
C32   H47   S    
Cr11  O19   S    
C72   O52   A    
C46   C82   S    
C21   C22   A    
C3    C86   S    
C76   O8    A    
C20   H40   S    
O65   H21   S    
C58   C78   S    
C66   O2    A    
C68   O4    A    
C34   O82   S    
C65   O1    A    
C83   O75   S    
C60   O67   S    
O79   H43   S    
Cr1   O21   S    
Cr2   O22   S    
C10   C21   A    
C25   C29   A    
Cr4   O44   S    
C12   C67   S    
Cr11  O15   S    
C30   C34   A    
C12   C27   A    
C27   C31   A    
O72   H32   S    
O57   H9    S    
C57   C77   S    
C14   O78   S    
C28   C32   A    
Cr3   O43   S    
C86   C90   D    
C59   C79   S    
O56   H8    S    
C6    H26   S    
C48   O36   A    
C5    H25   S    
C4    C85   S    
C51   C55   S    
C72   O48   A    
C25   C26   A    
O63   H15   S    
C41   O57   S    
Cr9   O17   S    
C47   C83   S    
C40   C76   S    
Cr7   O51   S    
Cr8   O20   S    
C35   C36   A    
C90   H2    S    
Cr11  O11   S    
O76   H36   S    
C53   O53   S    
O74   H34   S    
Cr2   O2    S    
O77   H41   S    
Cr10  O10   S    
Cr11  O35   S    
C46   O30   A    
C65   O37   A    
C35   O83   S    
C13   C17   A    
C49   H53   S    
O80   H44   S    
C38   C54   D    
C71   O51   A    
O75   H35   S    
C16   C20   A    
Cr7   O7    S    
C31   H48   S    
Cr6   O26   S    
C58   O65   S    
C45   O33   A    
O73   H33   S    
Cr7   O31   S    
C2    C87   S    
C64   H20   S    
C8    C84   D    
C36   O84   S    
C39   O63   S    
Cr3   O3    S    
C42   C50   D    
C41   C72   S    
Cr12  O20   S    
Cr1   O45   S    
C2    O22   A    
C10   C25   A    
C15   C24   A    
Cr8   O8    S    
C16   C23   A    
Cr5   O49   S    
C61   H17   S    
C3    O27   A    
C8    H28   S    
C19   H39   S    
Cr8   O52   S    
C55   O55   S    
C88   O72   S    
C18   H38   S    
Cr2   O18   S    
C7    C91   S    
C17   H37   S    
C11   C68   S    
C14   C21   A    
Cr7   O19   S    
C82   O74   S    
C38   C74   S    
C10   C65   S    
Cr3   O19   S    
O66   H22   S    
Cr6   O18   S    
C37   C73   S    
C60   C80   S    
C4    O24   A    
Cr9   O33   S    
C38   O62   S    
C47   O31   A    
C70   O50   A    
C45   O29   A    
C48   O32   A    
C51   H55   S    
Cr4   O20   S    
Cr1   O17   S    
C63   C64   S    
C50   H54   S    
Cr11  O39   S    
C74   O6    A    
C79   O43   A    
Cr8   O28   S    
C89   H1    S    
C66   O38   A    
Cr7   O27   S    
O62   H14   S    
C43   C70   S    
C37   O61   S    
Cr6   O30   S    
C75   O7    A    
C62   H18   S    
C92   H4    S    
C69   O45   A    
C19   C20   A    
Cr5   O5    S    
Cr9   O13   S    
C1    O25   A    
O60   H12   S    
C6    C90   S    
C43   O59   S    
C67   O3    A    
O64   H16   S    
C77   O41   A    
C52   C56   S    
C11   C28   A    
C1    C88   S    
C49   C53   S    
C43   C51   D    
C56   O56   S    
C42   C71   S    
C2    O26   A    
C33   C34   A    
C13   C22   A    
C68   O40   A    
C31   C35   A    
C73   O5    A    
C7    H27   S    
C61   C62   S    
C69   O49   A    
O54   H6    S    
C59   O68   S    
C42   O58   S    
C78   O42   A    
Cr5   O25   S    
O68   H24   S    
Cr10  O18   S    
C48   C84   S    
Cr2   O46   S    
C80   O44   A    
C75   O11   A    
O61   H13   S    
C47   O35   A    
C27   C28   A    
C44   C69   S    
Cr10  O38   S    
O83   H51   S    
O59   H11   S    
C71   O47   A    
C86   O70   S    
C5    C89   S    
Cr8   O32   S    
Cr12  O36   S    
Cr12  O16   S    
C26   C30   A    
C74   O10   A    
