data_mof_unit_pretest_948.cif
_audit_creation_date              2012-12-10T17:30:17-0500
_audit_creation_method            fapswitch 2.2
_symmetry_space_group_name_H-M    P1
_symmetry_Int_Tables_number       1
_space_group_crystal_system       triclinic
_cell_length_a                    12.062504
_cell_length_b                    12.863065
_cell_length_c                    14.944304
_cell_angle_alpha                 89.984617
_cell_angle_beta                  85.554579
_cell_angle_gamma                 94.162622
_cell_volume                      2305.65509379

loop_
_atom_site_label
_atom_site_type_symbol
_atom_type_description
_atom_site_fract_x
_atom_site_fract_y
_atom_site_fract_z
_atom_type_partial_charge
C1    C     C_R   0.523320 0.700331 0.494831 0.885688
C2    C     C_R   0.368634 0.134299 0.561392 0.179500
C3    C     C_R   0.456493 0.866016 0.533091 -0.314932
C4    C     C_R   0.543586 0.133971 0.467072 -0.313514
C5    C     C_R   0.454136 0.972449 0.523902 0.070567
C6    C     C_R   0.545991 0.027555 0.476350 0.071092
C7    C     C_R   0.954698 0.415713 0.404287 0.097856
C8    C     C_R   0.045350 0.584248 0.595793 0.097111
C9    C     C_R   0.837394 0.418273 0.419406 0.225387
C10   C     C_R   0.162661 0.581751 0.580607 0.228169
C11   C     C_R   0.856394 0.542124 0.535749 0.188202
C12   C     C_R   0.476691 0.299670 0.505198 0.885637
C13   C     C_R   0.143594 0.457795 0.464344 0.187495
C14   C     C_R   0.974960 0.532467 0.533816 -0.071616
C15   C     C_R   0.025047 0.467467 0.466285 -0.071334
C16   C     C_R   0.500163 0.500989 0.672652 0.894444
C17   C     C_R   0.499821 0.499022 0.327326 0.891427
C18   C     C_R   0.522149 0.409233 0.184555 0.014742
C19   C     C_R   0.480449 0.593795 0.814271 -0.012396
C20   C     C_R   0.498514 0.499735 0.231781 -0.133416
C21   C     C_R   0.501860 0.501941 0.768142 -0.112760
C22   C     C_R   0.470447 0.589823 0.188534 0.120751
C23   C     C_R   0.409293 0.666536 0.958629 0.095471
C24   C     C_R   0.530066 0.412583 0.812117 0.119403
C25   C     C_R   0.454588 0.584336 0.096395 0.068242
C26   C     C_R   0.549085 0.420115 0.903449 0.090839
C27   C     C_R   0.499939 0.501411 0.046624 -0.096398
C28   C     C_R   0.504725 0.503878 0.952841 -0.079115
C29   C     C_R   0.538019 0.414684 0.090949 0.088256
C30   C     C_R   0.466149 0.590361 0.908206 0.057848
C31   C     C_R   0.396166 0.658343 0.052286 0.176636
C32   C     C_R   0.608708 0.346731 0.947292 0.139514
C33   C     C_3   0.001184 0.366673 0.318170 -0.959956
C34   C     C_R   0.595559 0.339087 0.041311 0.102494
C35   C     C_3   0.998934 0.633246 0.681944 -0.959571
C36   C     C_3   0.472179 0.692227 0.239178 -0.888460
C37   C     C_3   0.524634 0.308860 0.763503 -0.896808
C38   C     C_3   0.306714 0.718716 0.101291 -0.872277
C39   C     C_3   0.697308 0.286313 0.897126 -0.933434
C40   C     C_3   0.281735 0.191375 0.617200 -0.887810
C41   C     C_3   0.718515 0.808701 0.383074 -0.887118
C42   C     C_3   0.743047 0.037703 0.398968 -0.954130
C43   C     C_3   0.257201 0.962333 0.601521 -0.955271
C44   C     C_R   0.460233 0.187603 0.511528 -0.118331
C45   C     C_R   0.539827 0.812396 0.488592 -0.118029
C46   C     C_R   0.638342 0.975600 0.438408 0.223286
C47   C     C_R   0.361827 0.024420 0.561908 0.222924
C48   C     C_R   0.631514 0.865722 0.438841 0.178406
H1    H     H_    0.608342 0.177351 0.425511 0.190275
H2    H     H_    0.937526 0.576965 0.718406 0.247668
H3    H     H_    0.061493 0.652005 0.730782 0.233359
H4    H     H_    0.963520 0.708093 0.668346 0.241797
H5    H     H_    0.480444 0.760799 0.193673 0.251694
H6    H     H_    0.396795 0.694852 0.286459 0.251613
H7    H     H_    0.546462 0.700252 0.278206 0.224581
H8    H     H_    0.519788 0.241375 0.810066 0.255601
H9    H     H_    0.447194 0.300081 0.728367 0.225262
H10   H     H_    0.596820 0.304957 0.713123 0.251772
H11   H     H_    0.280271 0.686176 0.168842 0.244724
H12   H     H_    0.391705 0.822609 0.574593 0.189590
H13   H     H_    0.335796 0.802284 0.105880 0.244606
H14   H     H_    0.229938 0.712748 0.064520 0.247002
H15   H     H_    0.670301 0.202002 0.896127 0.241109
H16   H     H_    0.718677 0.315557 0.827800 0.262740
H17   H     H_    0.776815 0.296793 0.929781 0.235266
H18   H     H_    0.302556 0.714519 0.869778 0.192941
H19   H     H_    0.413857 0.802287 0.887170 0.215334
H20   H     H_    0.622178 0.186520 0.060648 0.197341
H21   H     H_    0.733658 0.271742 0.077513 0.183043
H22   H     H_    0.261944 0.152118 0.683288 0.237461
H23   H     H_    0.587916 0.317547 0.275162 0.202833
H24   H     H_    0.309681 0.271818 0.634649 0.250824
H25   H     H_    0.204809 0.192962 0.581121 0.242052
H26   H     H_    0.738502 0.848098 0.317068 0.237836
H27   H     H_    0.795330 0.806999 0.419278 0.241883
H28   H     H_    0.690626 0.728305 0.365426 0.250967
H29   H     H_    0.815789 0.990608 0.386111 0.255119
H30   H     H_    0.726218 0.075142 0.334932 0.239404
H31   H     H_    0.769844 0.098341 0.447264 0.240721
H32   H     H_    0.184515 0.009446 0.614608 0.255579
H33   H     H_    0.230204 0.901770 0.553231 0.241272
H34   H     H_    0.448744 0.295793 0.268401 0.177017
H35   H     H_    0.274234 0.924805 0.665465 0.236476
H36   H     H_    0.210150 0.393346 0.347937 0.192974
H37   H     H_    0.158516 0.304619 0.432519 0.174477
H38   H     H_    0.841397 0.695234 0.567755 0.174210
H39   H     H_    0.789918 0.606375 0.652265 0.193150
H40   H     H_    0.215816 0.719160 0.635352 0.163722
H41   H     H_    0.230689 0.610945 0.698814 0.174796
H42   H     H_    0.784184 0.280990 0.364540 0.165771
H43   H     H_    0.769814 0.389347 0.301096 0.180767
H44   H     H_    0.555371 0.704341 0.728353 0.188193
H45   H     H_    0.415940 0.684182 0.722020 0.196826
H46   H     H_    0.062642 0.422933 0.281734 0.247239
H47   H     H_    0.036553 0.291820 0.331817 0.241863
H48   H     H_    0.938713 0.347887 0.269272 0.234338
N1    N     N_R   0.207800 0.519350 0.516680 -0.117540
N2    N     N_3   0.763023 0.358370 0.366091 -0.410196
N3    N     N_R   0.792200 0.480650 0.483320 -0.117224
N4    N     N_3   0.525050 0.311611 0.231020 -0.434970
N5    N     N_3   0.478997 0.690321 0.766033 -0.488930
N6    N     N_3   0.354390 0.747180 0.916881 -0.459064
N7    N     N_3   0.647034 0.259062 0.086950 -0.438465
N8    N     N_3   0.198842 0.377603 0.416544 -0.393973
N9    N     N_3   0.801119 0.622215 0.583669 -0.394166
N10   N     N_3   0.237109 0.641821 0.633788 -0.411200
O1    O     O_R   0.421700 0.658830 0.504450 -0.607270
O2    O     O_R   0.578300 0.341170 0.495550 -0.608283
O3    O     O_R   0.609310 0.646410 0.493750 -0.601011
O4    O     O_R   0.390690 0.353590 0.506250 -0.600890
O5    O     O_R   0.406180 0.506230 0.637500 -0.618785
O6    O     O_R   0.593820 0.493770 0.362500 -0.618610
O7    O     O_R   0.593800 0.493820 0.626800 -0.609560
O8    O     O_R   0.406200 0.506180 0.373200 -0.608221
Zn1   Zn    Zn3+2 0.374730 0.508290 0.507150 0.954231
Zn2   Zn    Zn3+2 0.625270 0.491710 0.492850 0.954325

loop_
_geom_bond_atom_site_label_1
_geom_bond_atom_site_label_2
_ccdc_geom_bond_type
C25   C31   A    
C17   O6    A    
C26   C32   A    
C16   C21   S    
C27   C29   A    
C43   H35   S    
H18   N6    S    
H20   N7    S    
C1    C45   S    
C16   O7    A    
C12   O4    A    
O8    Zn1   S    
C39   H16   S    
C5    C47   A    
C9    N2    S    
C40   H22   S    
C19   C21   A    
C24   C26   A    
C5    C6    A    
C11   C14   A    
C23   N6    S    
C17   C20   S    
C40   H25   S    
C11   N3    A    
C42   C46   S    
C32   C39   S    
C36   H5    S    
O3    Zn2   S    
C1    O3    A    
C41   H26   S    
C37   H8    S    
C2    C44   A    
C22   C25   A    
H41   N10   S    
C11   N9    S    
N1    Zn1   S    
C40   H24   S    
C37   H10   S    
C38   H13   S    
C3    H12   S    
C7    C15   A    
C42   H31   S    
C9    N3    A    
C33   H46   S    
C39   H17   S    
C18   N4    S    
C33   H47   S    
C17   O8    A    
H21   N7    S    
C46   C48   A    
C7    C33   S    
C23   C30   A    
C4    C6    A    
H45   N5    S    
N3    Zn2   S    
C12   O2    A    
C4    C44   A    
C43   H32   S    
C29   C34   A    
C3    C45   A    
C8    C35   S    
C32   C34   A    
C10   N1    A    
C41   H27   S    
H40   N10   S    
H39   N9    S    
C35   H2    S    
C24   C37   S    
C18   C29   A    
C13   N8    S    
O1    Zn1   S    
H37   N8    S    
H44   N5    S    
C1    O1    A    
C20   C22   A    
C42   H30   S    
C13   C15   A    
C35   H3    S    
C43   H33   S    
C10   N10   S    
H38   N9    S    
C33   H48   S    
O6    Zn2   S    
C39   H15   S    
C45   C48   A    
C7    C9    A    
C35   H4    S    
C8    C14   A    
C6    C46   A    
H34   N4    S    
C3    C5    A    
C2    C47   A    
C25   C27   A    
C22   C36   S    
H23   N4    S    
C26   C28   A    
C34   N7    S    
C31   C38   S    
C4    H1    S    
O7    Zn2   S    
C28   C30   A    
C12   C44   S    
C36   H7    S    
C41   H28   S    
C19   N5    S    
O2    Zn2   S    
H36   N8    S    
C41   C48   S    
C18   C20   A    
H43   N2    S    
C13   N1    A    
C36   H6    S    
C38   H11   S    
C2    C40   S    
C16   O5    A    
C42   H29   S    
C8    C10   A    
C21   C24   A    
C27   C28   A    
C14   C15   A    
O5    Zn1   S    
C19   C30   A    
C43   C47   S    
O4    Zn1   S    
H42   N2    S    
C37   H9    S    
H19   N6    S    
C23   C31   A    
C38   H14   S    
