data_mof_unit_pretest_109.cif
_audit_creation_date              2012-10-26T19:50:06-0400
_audit_creation_method            fapswitch 2.2
_symmetry_space_group_name_H-M    P1
_symmetry_Int_Tables_number       1
_space_group_crystal_system       triclinic
_cell_length_a                    15.135697
_cell_length_b                    13.861934
_cell_length_c                    10.771298
_cell_angle_alpha                 89.729408
_cell_angle_beta                  90.106662
_cell_angle_gamma                 90.196824
_cell_volume                      2259.88400218

loop_
_atom_site_label
_atom_site_type_symbol
_atom_type_description
_atom_site_fract_x
_atom_site_fract_y
_atom_site_fract_z
_atom_type_partial_charge
C1    C     C_R   0.329941 0.499950 0.499730 0.529244
C2    C     C_R   0.951657 0.501126 0.500501 0.033823
C3    C     C_R   0.540923 0.107733 0.595978 -0.145155
C4    C     C_R   0.457561 0.108010 0.405629 -0.142428
C5    C     C_R   0.541137 0.209233 0.593243 0.045873
C6    C     C_R   0.458195 0.209501 0.407438 0.044360
C7    C     C_R   0.499163 0.054658 0.500918 0.024058
C8    C     C_R   0.430611 0.891945 0.444731 -0.147391
C9    C     C_R   0.568141 0.892284 0.557000 -0.147360
C10   C     C_R   0.432566 0.790488 0.444563 0.038800
C11   C     C_R   0.566881 0.790804 0.556300 0.043465
C12   C     C_R   0.670154 0.500154 0.500179 0.547893
C13   C     C_R   0.499290 0.945322 0.500881 0.017506
C14   C     C_R   0.496734 0.500230 0.262437 0.541749
C15   C     C_R   0.497044 0.499756 0.737521 0.543473
C16   C     C_R   0.359179 0.606389 0.127364 -0.158894
C17   C     C_R   0.358593 0.604028 0.868822 -0.153163
C18   C     C_R   0.293835 0.657038 0.061746 0.292253
C19   C     C_R   0.296515 0.660467 0.931924 0.292537
C20   C     C_R   0.425200 0.553384 0.933623 -0.031197
C21   C     C_R   0.425641 0.554612 0.064572 -0.033160
C22   C     C_R   0.490672 0.500491 0.128686 0.016102
C23   C     C_R   0.233610 0.500236 0.499458 0.008019
C24   C     C_R   0.490191 0.498995 0.871105 0.019194
C25   C     C_R   0.550999 0.443505 0.064576 -0.148707
C26   C     C_R   0.550824 0.442833 0.936643 -0.151029
C27   C     C_R   0.096091 0.581730 0.542250 -0.120946
C28   C     C_R   0.904978 0.585319 0.469943 -0.128425
C29   C     C_R   0.187877 0.581567 0.541264 -0.132752
C30   C     C_R   0.813155 0.585149 0.470500 -0.131495
C31   C     C_3   0.169445 0.647147 0.183346 0.006871
C32   C     C_3   0.098031 0.613749 0.091782 -0.248934
C33   C     C_3   0.027530 0.553049 0.156664 -0.484574
C34   C     C_R   0.766694 0.500566 0.500579 0.014204
C35   C     C_3   0.269310 0.782873 0.790616 0.002939
C36   C     C_3   0.297425 0.871748 0.865543 -0.253714
C37   C     C_3   0.337449 0.949283 0.781473 -0.485025
C38   C     C_R   0.186728 0.419573 0.457004 -0.137726
C39   C     C_R   0.813129 0.416400 0.531188 -0.133162
C40   C     C_R   0.094918 0.420249 0.456233 -0.131510
C41   C     C_R   0.904946 0.416837 0.531882 -0.119546
C42   C     C_R   0.048816 0.501092 0.499589 0.028365
Cu1   Cu    Cu3+1 0.500000 0.596430 0.500000 0.917822
Cu2   Cu    Cu3+1 0.500000 0.403570 0.500000 0.929191
H1    H     H_    0.599906 0.401066 0.113967 0.124589
H2    H     H_    0.939341 0.650940 0.443755 0.094877
H3    H     H_    0.223042 0.644400 0.574997 0.122872
H4    H     H_    0.778603 0.650839 0.445881 0.124492
H5    H     H_    0.221005 0.356597 0.422825 0.122038
H6    H     H_    0.778560 0.350533 0.555962 0.121989
H7    H     H_    0.060065 0.358003 0.420247 0.102840
H8    H     H_    0.939316 0.351503 0.558367 0.104529
H9    H     H_    0.572493 0.071587 0.673320 0.085771
H10   H     H_    0.425570 0.072098 0.328702 0.090333
H11   H     H_    0.574130 0.248400 0.666620 0.117496
H12   H     H_    0.599756 0.400186 0.888369 0.113739
H13   H     H_    0.425223 0.248859 0.333963 0.121229
H14   H     H_    0.137195 0.688356 0.258893 0.151046
H15   H     H_    0.201256 0.583740 0.228839 0.115553
H16   H     H_    0.066353 0.677773 0.048263 0.193145
H17   H     H_    0.128552 0.569850 0.017338 0.177695
H18   H     H_    0.057656 0.487876 0.199296 0.156910
H19   H     H_    0.977077 0.529752 0.088018 0.150691
H20   H     H_    0.994444 0.595993 0.229655 0.153978
H21   H     H_    0.217796 0.805378 0.722927 0.141139
H22   H     H_    0.325496 0.756021 0.734119 0.123915
H23   H     H_    0.374764 0.927805 0.402325 0.094173
H24   H     H_    0.238962 0.901731 0.914082 0.184417
H25   H     H_    0.347332 0.850917 0.936470 0.170710
H26   H     H_    0.397957 0.921521 0.735898 0.163448
H27   H     H_    0.355671 0.013310 0.837663 0.149505
H28   H     H_    0.289182 0.971742 0.709176 0.148379
H29   H     H_    0.623652 0.928451 0.599977 0.088991
H30   H     H_    0.379514 0.751178 0.400079 0.129143
H31   H     H_    0.620026 0.751701 0.600744 0.124308
H32   H     H_    0.355906 0.607196 0.227511 0.138436
H33   H     H_    0.352619 0.598672 0.769153 0.141691
H34   H     H_    0.062246 0.644372 0.578076 0.111226
N1    N     N_R   0.500000 0.258690 0.500000 -0.219314
N2    N     N_R   0.500000 0.741330 0.500000 -0.223396
O1    O     O_R   0.371460 0.581430 0.500010 -0.533244
O2    O     O_3   0.231489 0.711095 0.868491 -0.559955
O3    O     O_R   0.628540 0.581430 0.499990 -0.508353
O4    O     O_R   0.371470 0.418560 0.500010 -0.498488
O5    O     O_R   0.628530 0.418560 0.499990 -0.503131
O6    O     O_R   0.500000 0.581450 0.319650 -0.497353
O7    O     O_R   0.500000 0.581450 0.680350 -0.506528
O8    O     O_R   0.500010 0.418580 0.319650 -0.510648
O9    O     O_R   0.499990 0.418580 0.680350 -0.507602
O10   O     O_3   0.230500 0.709871 0.124134 -0.558725

loop_
_geom_bond_atom_site_label_1
_geom_bond_atom_site_label_2
_ccdc_geom_bond_type
C8    C13   A    
C27   C29   A    
Cu1   O3    S    
C35   C36   S    
C27   H34   S    
C39   C41   A    
C38   H5    S    
C1    O4    A    
C28   H2    S    
C16   C21   A    
C12   O5    A    
C29   H3    S    
C23   C29   A    
C31   H14   S    
C30   H4    S    
C36   C37   S    
C24   C26   A    
C32   H17   S    
C3    C7    A    
C35   H21   S    
C2    C41   A    
C1    O1    A    
C17   C20   A    
C18   C19   A    
C31   H15   S    
C9    C13   A    
C20   C24   A    
C33   H18   S    
C22   C25   A    
C5    N1    A    
C19   O2    S    
C41   H8    S    
C40   C42   A    
C21   C22   A    
C3    H9    S    
C6    H13   S    
C9    H29   S    
C4    C7    A    
C35   O2    S    
C30   C34   A    
C34   C39   A    
C18   O10   S    
C14   O6    A    
C4    C6    A    
C10   N2    A    
C35   H22   S    
C3    C5    A    
Cu1   N2    S    
C12   O3    A    
Cu1   Cu2   S    
C15   O9    A    
C31   C32   S    
C33   H19   S    
C31   O10   S    
C17   H33   S    
C9    C11   A    
C8    C10   A    
C15   C24   S    
C1    C23   S    
C37   H27   S    
Cu1   O1    S    
C32   H16   S    
C12   C34   S    
Cu2   O5    S    
C40   H7    S    
C25   H1    S    
C36   H25   S    
C15   O7    A    
C4    H10   S    
C16   H32   S    
Cu1   O6    S    
C5    H11   S    
Cu2   N1    S    
Cu2   O4    S    
C26   H12   S    
C36   H24   S    
C23   C38   A    
Cu1   O7    S    
C32   C33   S    
C14   C22   S    
C28   C30   A    
C25   C26   A    
C14   O8    A    
C11   H31   S    
C38   C40   A    
C10   H30   S    
C27   C42   A    
C6    N1    A    
C2    C42   S    
C33   H20   S    
C17   C19   A    
C11   N2    A    
C7    C13   S    
C39   H6    S    
C20   C21   A    
C8    H23   S    
C16   C18   A    
C37   H28   S    
C2    C28   A    
Cu2   O8    S    
C37   H26   S    
Cu2   O9    S    
