data_mof_unit_pretest_998.cif
_audit_creation_date              2012-12-10T18:37:15-0500
_audit_creation_method            fapswitch 2.2
_symmetry_space_group_name_H-M    P1
_symmetry_Int_Tables_number       1
_space_group_crystal_system       triclinic
_cell_length_a                    15.110978
_cell_length_b                    13.901082
_cell_length_c                    10.740488
_cell_angle_alpha                 90.528793
_cell_angle_beta                  91.620583
_cell_angle_gamma                 89.482625
_cell_volume                      2255.05033521

loop_
_atom_site_label
_atom_site_type_symbol
_atom_type_description
_atom_site_fract_x
_atom_site_fract_y
_atom_site_fract_z
_atom_type_partial_charge
C1    C     C_R   0.329727 0.500304 0.499986 0.808990
C2    C     C_3   0.590849 0.456074 0.927572 -0.425444
C3    C     C_R   0.093104 0.585505 0.472246 -0.128805
C4    C     C_R   0.095084 0.414751 0.516432 -0.127200
C5    C     C_R   0.185070 0.586131 0.477547 -0.201058
C6    C     C_R   0.187095 0.414747 0.518014 -0.200219
C7    C     C_R   0.232802 0.500562 0.498818 -0.038715
C8    C     C_R   0.047597 0.500011 0.492823 0.140866
C9    C     C_R   0.902213 0.432302 0.422150 0.414179
C10   C     C_R   0.905096 0.568441 0.568134 0.420511
C11   C     C_R   0.810156 0.430013 0.429294 -0.248353
C12   C     C_R   0.812990 0.569708 0.565863 -0.274007
C13   C     C_R   0.765751 0.499366 0.499179 -0.147614
C14   C     C_R   0.950444 0.500235 0.494350 -0.124229
C15   C     C_R   0.545080 0.111720 0.603879 0.403238
C16   C     C_R   0.577096 0.887760 0.556851 0.404945
C17   C     C_R   0.501219 0.499722 0.259775 0.781397
C18   C     C_R   0.545574 0.212857 0.593773 -0.050059
C19   C     C_R   0.568287 0.786883 0.560759 -0.059780
C20   C     C_R   0.454973 0.205814 0.411630 0.175596
C21   C     C_R   0.436504 0.794430 0.438270 0.164736
C22   C     C_R   0.462579 0.105100 0.408819 -0.387497
C23   C     C_R   0.436115 0.895260 0.446931 -0.398676
C24   C     C_R   0.507081 0.054803 0.505914 0.029059
C25   C     C_R   0.506981 0.945157 0.505684 0.029374
C26   C     C_R   0.669787 0.499708 0.500266 0.843053
C27   C     C_R   0.500779 0.500462 0.740024 0.762093
C28   C     C_3   0.491068 0.603872 0.071709 -0.382393
C29   C     C_3   0.426064 0.438734 0.066975 -0.381577
C30   C     C_3   0.494567 0.605137 0.929511 -0.380139
C31   C     C_3   0.423756 0.441877 0.923933 -0.393000
C32   C     C_3   0.594381 0.456744 0.073091 0.016871
C33   C     C_3   0.504194 0.499271 0.121340 0.060267
C34   C     C_3   0.502490 0.501040 0.877588 0.131031
Cu1   Cu    Cu3+1 0.499990 0.596430 0.500000 0.943153
Cu2   Cu    Cu3+1 0.499990 0.403570 0.500000 0.950888
H1    H     H_    0.542622 0.652873 0.111452 0.189066
H2    H     H_    0.433505 0.362700 0.096007 0.200083
H3    H     H_    0.773088 0.376259 0.376838 0.169627
H4    H     H_    0.778472 0.623979 0.619500 0.153728
H5    H     H_    0.579667 0.255067 0.664946 0.144422
H6    H     H_    0.619130 0.744547 0.607931 0.142112
H7    H     H_    0.431199 0.066839 0.331570 0.161659
H8    H     H_    0.380588 0.933854 0.404970 0.161815
H9    H     H_    0.425848 0.633038 0.100469 0.194740
H10   H     H_    0.362042 0.466154 0.102660 0.179431
H11   H     H_    0.433583 0.640836 0.891027 0.176110
H12   H     H_    0.360109 0.474676 0.890208 0.160426
H13   H     H_    0.552270 0.648369 0.901378 0.177154
H14   H     H_    0.426349 0.367083 0.886318 0.178399
H15   H     H_    0.647309 0.496502 0.889499 0.140772
H16   H     H_    0.597137 0.381441 0.889671 0.159012
H17   H     H_    0.057444 0.651899 0.452965 0.162831
H18   H     H_    0.060937 0.348436 0.534922 0.159680
H19   H     H_    0.218477 0.653525 0.464612 0.171862
H20   H     H_    0.222325 0.347859 0.535831 0.157822
N1    N     N_R   0.500020 0.258690 0.500000 -0.214933
N2    N     N_R   0.500020 0.741310 0.500000 -0.214134
O1    O     O_R   0.371450 0.581430 0.500010 -0.580518
O2    O     O_R   0.371450 0.418570 0.500010 -0.580374
O3    O     O_R   0.499980 0.581440 0.317690 -0.578268
O4    O     O_R   0.499980 0.418560 0.317690 -0.573827
O5    O     O_R   0.628540 0.581440 0.499990 -0.592537
O6    O     O_R   0.628540 0.418560 0.499990 -0.578819
O7    O     O_R   0.500010 0.581440 0.682310 -0.591391
O8    O     O_R   0.500010 0.418560 0.682310 -0.604140
O9    O     O_3   0.581297 0.070747 0.710574 -0.574409
C35   C     C_3   0.514777 0.058565 0.799249 0.066432
H21   H     H_    0.527636 0.988536 0.845718 0.176975
H22   H     H_    0.446160 0.054627 0.757871 0.114117
C36   C     C_3   0.520259 0.138851 0.897853 -0.361996
H23   H     H_    0.588761 0.142129 0.938080 0.247370
H24   H     H_    0.504177 0.209092 0.854033 0.198947
C37   C     C_3   0.455977 0.122121 0.002395 -0.891031
H25   H     H_    0.386829 0.120319 0.964574 0.252458
H26   H     H_    0.461553 0.181519 0.071832 0.267645
H27   H     H_    0.471754 0.053223 0.050036 0.253131
O10   O     O_3   0.654887 0.927948 0.602513 -0.576380
C38   C     C_3   0.715949 0.935246 0.505461 0.066121
H28   H     H_    0.756881 0.999856 0.525464 0.183721
H29   H     H_    0.683766 0.946902 0.411793 0.122925
C39   C     C_3   0.777148 0.846539 0.502714 -0.372937
H30   H     H_    0.805432 0.833213 0.597736 0.243079
H31   H     H_    0.738881 0.782327 0.472143 0.216663
C40   C     C_3   0.852618 0.859790 0.413250 -0.861271
H32   H     H_    0.825846 0.871999 0.317249 0.252532
H33   H     H_    0.894904 0.794007 0.412875 0.268467
H34   H     H_    0.894049 0.921932 0.443021 0.252539
C41   C     C_1   0.392082 0.250962 0.327469 0.288586
N3    N     N_1   0.339785 0.286130 0.261153 -0.333397
C42   C     C_1   0.372212 0.749084 0.356349 0.278308
N4    N     N_1   0.320900 0.713567 0.288825 -0.343158
C43   C     C_1   0.669841 0.515183 0.119793 0.172085
N5    N     N_1   0.728670 0.561069 0.156630 -0.321561
C44   C     C_1   0.611130 0.357700 0.117979 0.205850
N6    N     N_1   0.624303 0.280304 0.153220 -0.305529
O11   O     O_3   0.945388 0.367354 0.345827 -0.613567
C45   C     C_3   0.931303 0.392359 0.219011 0.055851
H35   H     H_    0.997182 0.400545 0.177139 0.165930
H36   H     H_    0.895183 0.462033 0.204151 0.151969
C46   C     C_3   0.881670 0.311556 0.149880 -0.323783
H37   H     H_    0.921105 0.243829 0.156645 0.228011
H38   H     H_    0.817084 0.299566 0.193589 0.228614
C47   C     C_3   0.864866 0.335619 0.012789 -0.915721
H39   H     H_    0.825144 0.402948 0.003664 0.267024
H40   H     H_    0.827512 0.276315 0.966253 0.264079
H41   H     H_    0.928612 0.344298 0.965306 0.250186
O12   O     O_3   0.949817 0.638089 0.637185 -0.622815
C48   C     C_3   0.979514 0.599775 0.752813 0.066791
H42   H     H_    0.041267 0.638042 0.780848 0.173883
H43   H     H_    0.997288 0.521692 0.748144 0.122708
C49   C     C_3   0.910455 0.617561 0.852467 -0.350158
H44   H     H_    0.888357 0.694028 0.850023 0.234650
H45   H     H_    0.852020 0.571246 0.833095 0.205496
C50   C     C_3   0.948271 0.595227 0.982327 -0.920714
H46   H     H_    0.972271 0.519612 0.986511 0.249600
H47   H     H_    0.896058 0.605791 0.051888 0.273706
H48   H     H_    0.004055 0.644068 0.006502 0.258683

loop_
_geom_bond_atom_site_label_1
_geom_bond_atom_site_label_2
_ccdc_geom_bond_type
C15   C18   A    
C43   N5    T    
C3    H17   S    
C10   O12   S    
C44   N6    T    
C4    C8    A    
C49   H45   S    
O11   C45   S    
C40   H32   S    
C46   H37   S    
C37   H26   S    
Cu1   N2    S    
C2    C32   S    
C1    O1    A    
Cu2   O8    S    
Cu1   O7    S    
C50   H46   S    
C45   H35   S    
C29   C33   S    
O12   C48   S    
Cu1   O1    S    
C26   O6    A    
C49   H44   S    
C17   O3    A    
Cu1   Cu2   S    
C35   H21   S    
C50   H47   S    
C37   H27   S    
C29   H2    S    
C9    O11   S    
C19   H6    S    
C2    C34   S    
C32   C43   S    
C46   H38   S    
C27   C34   S    
C17   C33   S    
Cu2   O4    S    
C10   C12   A    
C47   H40   S    
C47   H39   S    
C40   H33   S    
C19   N2    A    
C28   H9    S    
C37   H25   S    
C30   C34   S    
O9    C35   S    
C30   H11   S    
C49   C50   S    
C24   C25   S    
C4    C6    A    
C3    C8    A    
C10   C14   A    
C48   C49   S    
C42   N4    T    
C5    C7    A    
C9    C14   A    
O10   C38   S    
C3    C5    A    
C23   H8    S    
C18   H5    S    
C12   H4    S    
C26   O5    A    
C27   O7    A    
C17   O4    A    
C36   C37   S    
C18   N1    A    
C22   H7    S    
C50   H48   S    
C15   O9    S    
C31   C34   S    
Cu1   O3    S    
C11   H3    S    
C9    C11   A    
C2    H16   S    
C15   C24   A    
C30   H13   S    
C20   C22   A    
C28   C33   S    
Cu2   N1    S    
C46   C47   S    
C39   H31   S    
C31   H12   S    
C21   C23   A    
C22   C24   A    
C13   C26   S    
C1    O2    A    
C31   H14   S    
C39   C40   S    
C36   H24   S    
C21   C42   S    
C40   H34   S    
C16   C25   A    
C8    C14   S    
C4    H18   S    
C1    C7    S    
C5    H19   S    
C6    H20   S    
Cu2   O2    S    
C38   C39   S    
C38   H29   S    
C35   C36   S    
C6    C7    A    
C45   C46   S    
C20   C41   S    
C45   H36   S    
C29   H10   S    
C32   C33   S    
C48   H43   S    
C41   N3    T    
C36   H23   S    
C29   C31   S    
C27   O8    A    
C48   H42   S    
C11   C13   A    
C28   H1    S    
C16   C19   A    
C28   C30   S    
C16   O10   S    
C23   C25   A    
C2    H15   S    
C38   H28   S    
C21   N2    A    
C32   C44   S    
C12   C13   A    
C35   H22   S    
C39   H30   S    
Cu1   O5    S    
C20   N1    A    
Cu2   O6    S    
C47   H41   S    
