data_mof_unit_pretest_247.cif
_audit_creation_date              2012-12-10T18:58:15-0500
_audit_creation_method            fapswitch 2.2
_symmetry_space_group_name_H-M    P1
_symmetry_Int_Tables_number       1
_space_group_crystal_system       triclinic
_cell_length_a                    11.005899
_cell_length_b                    10.813463
_cell_length_c                    9.552655
_cell_angle_alpha                 90.733604
_cell_angle_beta                  102.375163
_cell_angle_gamma                 90.505617
_cell_volume                      1110.29544566

loop_
_atom_site_label
_atom_site_type_symbol
_atom_type_description
_atom_site_fract_x
_atom_site_fract_y
_atom_site_fract_z
_atom_type_partial_charge
C1    C     C_R   0.499904 0.262645 0.498896 0.783054
C2    C     C_R   0.396144 0.468328 0.048138 -0.093758
C3    C     C_R   0.396132 0.468388 0.899624 -0.081249
C4    C     C_R   0.262673 0.496063 0.442103 0.848673
C5    C     C_R   0.607950 0.518360 0.953359 0.226930
C6    C     C_3   0.689154 0.630395 0.969502 -0.462974
C7    C     C_3   0.689106 0.631518 0.128190 -0.467130
C8    C     C_R   0.502635 0.737690 0.500998 0.793297
C9    C     C_R   0.737070 0.494689 0.557515 0.860445
C10   C     C_2   0.127888 0.480398 0.409782 -0.337339
C11   C     C_2   0.067703 0.464725 0.516135 -0.258564
C12   C     C_R   0.506299 0.129968 0.495546 -0.057529
C13   C     C_2   0.872012 0.482981 0.588493 -0.480765
C14   C     C_2   0.932973 0.447153 0.486790 0.494288
C15   C     C_R   0.581426 0.067314 0.607017 0.005740
C16   C     C_3   0.825171 0.287811 0.350736 0.116393
C17   C     C_3   0.921451 0.194478 0.323160 -0.400574
C18   C     C_3   0.866162 0.063768 0.304168 -0.901694
C19   C     C_3   0.831175 0.919237 0.774852 0.091712
C20   C     C_3   0.859676 0.802583 0.695749 -0.340074
C21   C     C_3   0.977481 0.819172 0.637529 -0.934708
C22   C     C_R   0.445757 0.062353 0.373716 -0.215857
C23   C     C_R   0.445826 0.933215 0.375889 -0.188917
C24   C     C_R   0.508213 0.871230 0.498949 -0.120136
C25   C     C_R   0.586529 0.940244 0.606960 0.014006
C26   C     C_3   0.611557 0.940048 0.768217 0.294853
C27   C     C_3   0.603069 0.080930 0.765843 -0.500913
C28   C     C_R   0.607802 0.519160 0.100742 0.279827
Cu1   Cu    Cu3+1 0.499990 0.499980 0.640670 0.934230
Cu2   Cu    Cu3+1 0.500010 0.500020 0.359330 0.937909
H1    H     H_    0.691559 0.130630 0.812575 0.195008
H2    H     H_    0.078243 0.478422 0.298402 0.181198
H3    H     H_    0.392590 0.108736 0.280929 0.149377
H4    H     H_    0.392254 0.882289 0.284524 0.155593
H5    H     H_    0.534355 0.896002 0.808667 0.106991
H6    H     H_    0.520009 0.116028 0.801931 0.178957
H7    H     H_    0.741142 0.279162 0.262634 0.171611
H8    H     H_    0.794500 0.264500 0.451396 0.109174
H9    H     H_    0.953903 0.220016 0.224793 0.226382
H10   H     H_    0.002796 0.196340 0.415068 0.215334
H11   H     H_    0.829535 0.037661 0.399543 0.252607
H12   H     H_    0.311451 0.443841 0.081599 0.141371
H13   H     H_    0.939116 0.997136 0.290680 0.258981
H14   H     H_    0.789320 0.058088 0.207510 0.269507
H15   H     H_    0.913605 0.942272 0.861086 0.157072
H16   H     H_    0.818531 0.999634 0.702064 0.128000
H17   H     H_    0.872577 0.723786 0.770661 0.218914
H18   H     H_    0.780627 0.779933 0.605276 0.210242
H19   H     H_    0.967967 0.898552 0.563636 0.260043
H20   H     H_    0.993689 0.734401 0.577681 0.268470
H21   H     H_    0.059210 0.835454 0.726989 0.253338
H22   H     H_    0.311464 0.443816 0.823783 0.135592
H23   H     H_    0.781824 0.610828 0.946232 0.194704
H24   H     H_    0.638916 0.709010 0.911985 0.248396
H25   H     H_    0.781890 0.612162 0.196501 0.231061
H26   H     H_    0.641252 0.712846 0.162968 0.212242
H27   H     H_    0.117485 0.469492 0.627446 0.145735
H28   H     H_    0.923386 0.508617 0.695403 0.114506
N1    N     N_R   0.500780 0.500930 0.148120 -0.190906
N2    N     N_R   0.500790 0.500890 0.852210 -0.184612
O1    O     O_R   0.500000 0.319640 0.618810 -0.576283
O2    O     O_3   0.729942 0.896446 0.841938 -0.611511
O3    O     O_R   0.500010 0.319680 0.381230 -0.596978
O4    O     O_R   0.320680 0.500000 0.575130 -0.580515
O5    O     O_R   0.320690 0.500040 0.337550 -0.592326
O6    O     O_R   0.499990 0.680320 0.618770 -0.579954
O7    O     O_R   0.500000 0.680360 0.381190 -0.579581
O8    O     O_R   0.679310 0.499960 0.662450 -0.588301
O9    O     O_R   0.679320 0.500000 0.424870 -0.540813
O10   O     O_3   0.871428 0.410444 0.349602 -0.607800

loop_
_geom_bond_atom_site_label_1
_geom_bond_atom_site_label_2
_ccdc_geom_bond_type
C23   C24   A    
Cu1   N2    S    
C24   C25   A    
C8    O6    A    
C6    C7    S    
C18   H14   S    
C27   H6    S    
C5    C28   A    
C4    O4    A    
C15   C27   S    
Cu2   O7    S    
C12   C15   A    
C7    H25   S    
C16   H7    S    
C3    H22   S    
C23   H4    S    
C3    N2    A    
C21   H19   S    
C2    C3    A    
C26   O2    S    
C19   H16   S    
C20   H18   S    
C18   H13   S    
Cu2   N1    S    
C14   O10   S    
C26   C27   S    
Cu1   Cu2   S    
C1    C12   S    
C28   N1    A    
C7    H26   S    
C2    H12   S    
C10   H2    S    
C5    C6    S    
C1    O3    A    
Cu2   O3    S    
C21   H20   S    
C8    C24   S    
C9    O9    A    
C6    H24   S    
C4    O5    A    
C9    O8    A    
C11   C14   S    
Cu1   O1    S    
Cu1   O4    S    
Cu2   O5    S    
C15   C25   A    
C10   C11   D    
C7    C28   S    
C6    H23   S    
C4    C10   S    
Cu1   O6    S    
Cu1   O8    S    
C12   C22   A    
C26   H5    S    
C21   H21   S    
Cu2   O9    S    
C16   O10   S    
C20   C21   S    
C20   H17   S    
C8    O7    A    
C17   C18   S    
C17   H9    S    
C18   H11   S    
C22   H3    S    
C9    C13   S    
C22   C23   A    
C16   C17   S    
C13   H28   S    
C19   O2    S    
C5    N2    A    
C25   C26   S    
C11   H27   S    
C2    N1    A    
C27   H1    S    
C19   H15   S    
C19   C20   S    
C16   H8    S    
C13   C14   D    
C17   H10   S    
C1    O1    A    
