data_mof_unit_pretest_1124.cif
_audit_creation_date              2012-12-10T17:14:30-0500
_audit_creation_method            fapswitch 2.2
_symmetry_space_group_name_H-M    P1
_symmetry_Int_Tables_number       1
_space_group_crystal_system       triclinic
_cell_length_a                    14.933522
_cell_length_b                    15.486491
_cell_length_c                    10.475829
_cell_angle_alpha                 90.691673
_cell_angle_beta                  83.768987
_cell_angle_gamma                 90.815648
_cell_volume                      2408.03083984

loop_
_atom_site_label
_atom_site_type_symbol
_atom_type_description
_atom_site_fract_x
_atom_site_fract_y
_atom_site_fract_z
_atom_type_partial_charge
C1    C     C_R   0.389794 0.120825 0.552309 0.991415
C2    C     C_2   0.492834 0.035396 0.062796 0.299473
C3    C     C_2   0.979237 0.508737 0.921711 0.287611
C4    C     C_2   0.992834 0.535396 0.062796 0.299474
C5    C     C_2   0.338374 0.797703 0.562096 -0.359712
C6    C     C_2   0.692359 0.174443 0.419292 -0.330081
C7    C     C_2   0.681699 0.819130 0.414718 -0.225559
C8    C     C_2   0.320762 0.182641 0.586639 -0.327550
C9    C     C_2   0.838374 0.297703 0.562096 -0.359711
C10   C     C_2   0.192358 0.674444 0.419292 -0.330089
C11   C     C_2   0.181699 0.319131 0.414718 -0.225574
C12   C     C_R   0.611378 0.880080 0.447505 0.940700
C13   C     C_2   0.820761 0.682640 0.586639 -0.327559
C14   C     C_2   0.330498 0.741634 0.463208 0.365075
C15   C     C_2   0.765450 0.172779 0.484491 0.310654
C16   C     C_2   0.703767 0.763564 0.502153 0.324686
C17   C     C_2   0.299240 0.239226 0.500797 0.285853
C18   C     C_2   0.830498 0.241634 0.463208 0.365072
C19   C     C_2   0.265450 0.672779 0.484491 0.310648
C20   C     C_2   0.203768 0.263564 0.502152 0.324696
C21   C     C_2   0.799239 0.739225 0.500798 0.285854
C22   C     C_R   0.616502 0.116087 0.447476 0.955299
C23   C     C_R   0.391925 0.876242 0.547817 0.991632
C24   C     C_R   0.889794 0.620825 0.552309 0.991421
C25   C     C_R   0.111378 0.380080 0.447505 0.940701
C26   C     C_R   0.116502 0.616087 0.447476 0.955302
C27   C     C_R   0.891925 0.376242 0.547817 0.991632
C28   C     C_2   0.479237 0.008737 0.921711 0.287609
H1    H     H_    0.687864 0.222122 0.344924 0.218257
H2    H     H_    0.748764 0.865985 0.785742 0.387375
H3    H     H_    0.726879 0.524644 0.361685 0.394777
H4    H     H_    0.248764 0.365984 0.785742 0.387374
H5    H     H_    0.906522 0.051516 0.680087 0.397477
H6    H     H_    0.408801 0.651570 0.148041 0.412673
H7    H     H_    0.422629 0.424345 0.351934 0.417382
H8    H     H_    0.590695 0.573537 0.648288 0.409011
H9    H     H_    0.406527 0.551500 0.680060 0.397486
H10   H     H_    0.908799 0.151570 0.148040 0.412674
H11   H     H_    0.922686 0.924344 0.352014 0.417391
H12   H     H_    0.301096 0.786318 0.655533 0.186829
H13   H     H_    0.090680 0.073537 0.648267 0.409017
H14   H     H_    0.655141 0.026419 0.155418 0.360347
H15   H     H_    0.377773 0.856133 0.885504 0.366738
H16   H     H_    0.155141 0.526419 0.155419 0.360343
H17   H     H_    0.877772 0.356134 0.885505 0.366737
H18   H     H_    0.276257 0.166840 0.671810 0.219295
H19   H     H_    0.726812 0.835697 0.330489 0.188892
H20   H     H_    0.187863 0.722123 0.344925 0.218256
H21   H     H_    0.801097 0.286318 0.655533 0.186829
H22   H     H_    0.776256 0.666838 0.671809 0.219290
H23   H     H_    0.226813 0.335699 0.330489 0.188873
H24   H     H_    0.226879 0.024643 0.361685 0.394773
N1    N     N_2   0.549450 0.000000 0.831550 0.020430
N2    N     N_2   0.450550 1.000000 0.168450 -0.005319
N3    N     N_2   0.049450 0.500000 0.831550 0.020430
N4    N     N_2   0.950550 0.500000 0.168450 -0.005320
O1    O     O_R   0.398960 0.091100 0.433300 -0.528136
O2    O     O_R   0.569290 0.908910 0.353790 -0.613110
O3    O     O_R   0.569290 0.091090 0.353790 -0.575427
O4    O     O_R   0.430710 0.908910 0.646210 -0.583974
O5    O     O_R   0.930710 0.591090 0.646210 -0.585295
O6    O     O_R   0.069290 0.408910 0.353790 -0.613111
O7    O     O_R   0.069290 0.591090 0.353790 -0.575426
O8    O     O_R   0.930710 0.408910 0.646210 -0.583975
O9    O     O_2   0.313893 0.111347 0.178756 -0.213176
O10   O     O_2   0.275155 0.959255 0.133189 -0.128559
O11   O     O_3   0.287917 0.999566 0.354727 -0.493797
O12   O     O_R   0.601040 0.908900 0.566700 -0.523173
O13   O     O_2   0.711656 0.009738 0.915378 -0.192791
O14   O     O_2   0.614586 0.887123 0.986615 -0.304402
O15   O     O_3   0.693192 0.887838 0.754328 -0.440946
O16   O     O_2   0.813894 0.611348 0.178756 -0.213180
O17   O     O_2   0.775154 0.459256 0.133189 -0.128554
O18   O     O_3   0.787917 0.499566 0.354727 -0.493795
O19   O     O_2   0.211655 0.509737 0.915379 -0.192791
O20   O     O_2   0.114586 0.387122 0.986615 -0.304404
O21   O     O_3   0.193192 0.387838 0.754327 -0.440947
O22   O     O_2   0.740156 0.120478 0.725235 -0.214345
O23   O     O_R   0.601040 0.091100 0.566700 -0.567171
O24   O     O_2   0.757784 0.006624 0.558938 -0.245650
O25   O     O_3   0.899855 0.092540 0.610025 -0.466568
O26   O     O_2   0.362848 0.811971 0.228319 -0.225394
O27   O     O_2   0.492471 0.751678 0.320043 -0.239841
O28   O     O_3   0.376670 0.645886 0.235416 -0.493438
O29   O     O_2   0.478585 0.266510 0.428054 -0.295765
O30   O     O_2   0.375791 0.269311 0.260427 -0.206959
O31   O     O_3   0.377065 0.399230 0.417318 -0.497853
O32   O     O_2   0.625394 0.727001 0.742288 -0.236502
O33   O     O_2   0.524885 0.733119 0.574023 -0.257119
O34   O     O_R   0.398960 0.908900 0.433300 -0.527268
O35   O     O_3   0.628748 0.601316 0.576547 -0.539885
O36   O     O_2   0.240160 0.620475 0.725233 -0.214336
O37   O     O_2   0.257784 0.506623 0.558933 -0.245670
O38   O     O_3   0.399857 0.592537 0.610018 -0.466538
O39   O     O_2   0.862846 0.311972 0.228320 -0.225394
O40   O     O_2   0.992470 0.251679 0.320041 -0.239842
O41   O     O_3   0.876670 0.145886 0.235416 -0.493425
O42   O     O_2   0.978583 0.766511 0.428060 -0.295820
O43   O     O_2   0.875792 0.769312 0.260429 -0.206910
O44   O     O_3   0.877062 0.899230 0.417319 -0.497856
O45   O     O_R   0.898960 0.591100 0.433300 -0.528138
O46   O     O_2   0.125394 0.227001 0.742286 -0.236491
O47   O     O_2   0.024886 0.233117 0.574019 -0.257132
O48   O     O_3   0.128751 0.101315 0.576546 -0.539902
O49   O     O_2   0.596481 0.161553 0.947502 -0.210102
O50   O     O_2   0.528583 0.189746 0.165016 -0.163078
O51   O     O_3   0.665898 0.088079 0.133920 -0.455968
O52   O     O_2   0.306952 0.063951 0.954867 -0.175355
O53   O     O_2   0.327298 0.998815 0.757549 -0.278933
O54   O     O_3   0.332989 0.894262 0.933627 -0.442508
O55   O     O_2   0.096482 0.661552 0.947502 -0.210101
O56   O     O_R   0.101040 0.408900 0.566700 -0.523172
O57   O     O_2   0.028584 0.689746 0.165016 -0.163079
O58   O     O_3   0.165898 0.588079 0.133920 -0.455971
O59   O     O_2   0.806953 0.563952 0.954867 -0.175357
O60   O     O_2   0.827299 0.498815 0.757549 -0.278940
O61   O     O_3   0.832989 0.394262 0.933628 -0.442508
O62   O     O_R   0.101040 0.591100 0.566700 -0.567171
O63   O     O_R   0.898960 0.408900 0.433300 -0.527267
O64   O     O_R   0.430710 0.091090 0.646210 -0.585297
S1    S     S_3+6 0.332864 0.018349 0.203746 0.241067
S2    S     S_3+6 0.893718 0.241026 0.308838 0.118631
S3    S     S_3+6 0.886503 0.791812 0.397755 0.075774
S4    S     S_3+6 0.116956 0.208103 0.603069 0.077791
S5    S     S_3+6 0.571277 0.121569 0.076670 0.149901
S6    S     S_3+6 0.362171 0.995059 0.885107 0.120917
S7    S     S_3+6 0.071278 0.621569 0.076670 0.149901
S8    S     S_3+6 0.862171 0.495059 0.885107 0.120914
S9    S     S_3+6 0.642720 0.946339 0.876269 0.178118
S10   S     S_3+6 0.832865 0.518350 0.203746 0.241069
S11   S     S_3+6 0.142719 0.446339 0.876269 0.178116
S12   S     S_3+6 0.788649 0.094654 0.597889 0.112929
S13   S     S_3+6 0.393719 0.741025 0.308839 0.118633
S14   S     S_3+6 0.386504 0.291812 0.397753 0.075780
S15   S     S_3+6 0.616955 0.708103 0.603070 0.077798
S16   S     S_3+6 0.288650 0.594652 0.597885 0.112934
Zn1   Zn    Zn3+2 0.478810 0.000000 0.357840 1.178430
Zn2   Zn    Zn3+2 0.521190 0.000000 0.642160 1.185285
Zn3   Zn    Zn3+2 0.978810 0.500000 0.357840 1.178428
Zn4   Zn    Zn3+2 0.021190 0.500000 0.642160 1.185284

loop_
_geom_bond_atom_site_label_1
_geom_bond_atom_site_label_2
_ccdc_geom_bond_type
C15   C18   S    
C16   C21   S    
O33   S15   D    
C1    C8    S    
O56   Zn4   S    
O12   Zn2   S    
O37   S16   D    
O35   S15   S    
H2    O15   S    
O45   Zn3   S    
C12   O12   A    
O50   S5    D    
C9    C27   S    
C24   O5    A    
H6    O28   S    
O24   S12   D    
C22   O23   A    
O20   S11   D    
O62   Zn4   S    
N2    Zn1   S    
O3    Zn1   S    
C6    C22   S    
C17   C20   S    
C24   O45   A    
O21   S11   S    
O22   S12   D    
C25   O56   A    
H4    O21   S    
C3    N3    D    
O30   S14   D    
C15   S12   S    
O19   S11   D    
O38   S16   S    
H15   O54   S    
O9    S1    D    
O6    Zn3   S    
H14   O51   S    
O29   S14   D    
C12   O2    A    
C10   C26   S    
C6    C15   D    
H16   O58   S    
C4    N4    D    
C23   O4    A    
O31   S14   S    
O36   S16   D    
H7    O31   S    
H10   O41   S    
O46   S4    D    
O47   S4    D    
O11   S1    S    
C28   S6    S    
O42   S3    D    
C11   C20   D    
O28   S13   S    
C23   O34   A    
C20   S4    S    
C13   C21   D    
N1    Zn2   S    
C9    H21   S    
O51   S5    S    
C2    N2    D    
C22   O3    A    
N4    Zn3   S    
C3    S8    S    
O25   S12   S    
C19   S16   S    
O14   S9    D    
O59   S8    D    
C13   C24   S    
C1    O64   A    
C7    H19   S    
C21   S3    S    
C26   O7    A    
O41   S2    S    
C1    O1    A    
O15   S9    S    
C9    C18   D    
C5    C23   S    
C10   C19   D    
C6    H1    S    
O10   S1    D    
O1    Zn1   S    
C5    C14   D    
H24   O11   S    
C18   S2    S    
O57   S7    D    
H8    O35   S    
C7    C16   D    
N2    S1    S    
O54   S6    S    
N3    S11   S    
O18   S10   S    
C10   H20   S    
C7    C12   S    
N1    S9    S    
C3    C4    S    
O34   Zn1   S    
O2    Zn1   S    
O43   S3    D    
O8    Zn4   S    
H17   O61   S    
O17   S10   D    
C4    S7    S    
O7    Zn3   S    
C14   C19   S    
C26   O62   A    
O32   S15   D    
H3    O18   S    
C28   N1    D    
O5    Zn4   S    
O16   S10   D    
O48   S4    S    
C14   S13   S    
C27   O63   A    
C8    C17   D    
H13   O48   S    
O40   S2    D    
O44   S3    S    
O39   S2    D    
O49   S5    D    
O26   S13   D    
O63   Zn3   S    
O55   S7    D    
O58   S7    S    
H11   O44   S    
H9    O38   S    
C25   O6    A    
O61   S8    S    
C8    H18   S    
O27   S13   D    
C11   H23   S    
C27   O8    A    
N3    Zn4   S    
C13   H22   S    
C2    S5    S    
O53   S6    D    
O23   Zn2   S    
O64   Zn2   S    
O13   S9    D    
O60   S8    D    
C5    H12   S    
C17   S14   S    
C11   C25   S    
C2    C28   S    
O52   S6    D    
C16   S15   S    
H5    O25   S    
N4    S10   S    
O4    Zn2   S    
