data_mof_unit_pretest_1289.cif
_audit_creation_date              2013-03-05T16:04:35-0500
_audit_creation_method            fapswitch 2.2
_symmetry_space_group_name_H-M    P1
_symmetry_Int_Tables_number       1
_space_group_crystal_system       triclinic
_cell_length_a                    8.178573
_cell_length_b                    14.269426
_cell_length_c                    18.765075
_cell_angle_alpha                 96.992237
_cell_angle_beta                  91.139069
_cell_angle_gamma                 91.598878
_cell_volume                      2172.21903227

loop_
_atom_site_label
_atom_site_type_symbol
_atom_site_description
_atom_site_fract_x
_atom_site_fract_y
_atom_site_fract_z
_atom_type_partial_charge
P1    P     P_3+3 0.061800 0.409390 0.339760 0.459068
O1    O     O_2   0.887710 0.436190 0.327560 -0.345991
O2    O     O_3   0.135370 0.443490 0.416520 -0.404315
O3    O     O_3   0.634420 0.609440 0.364670 -0.347190
O4    O     O_2   0.764090 0.538758 0.242647 -0.390525
O5    O     O_3   0.045974 0.285822 0.325850 -0.579442
O6    O     O_3   0.676515 0.713771 0.249454 -0.503856
H1    H     H_    0.494231 0.763013 0.320523 0.082614
C1    C     C_3   0.612571 0.876406 0.275155 -0.753667
H2    H     H_    0.706337 0.888886 0.319190 0.273673
H3    H     H_    0.668003 0.891532 0.224064 0.266054
P2    P     P_3+3 0.622760 0.718740 0.547830 0.455080
P3    P     P_3+3 0.062373 0.781178 0.394220 0.465466
O7    O     O_2   0.795290 0.730930 0.525800 -0.378576
O8    O     O_3   0.044470 0.660110 0.398750 -0.386798
O9    O     O_2   0.921416 0.828949 0.437047 -0.373735
O10   O     O_3   0.632702 0.751975 0.640846 -0.576506
O11   O     O_3   0.023702 0.802363 0.305679 -0.503267
C2    C     C_3   0.084836 0.727449 0.259223 0.532445
H4    H     H_    0.007946 0.662463 0.260814 0.150109
H5    H     H_    0.212964 0.712896 0.273852 -0.046580
C3    C     C_3   0.080164 0.753194 0.182948 -0.969875
H6    H     H_    0.952439 0.766220 0.166457 0.285776
H7    H     H_    0.157176 0.817829 0.179770 0.262441
C4    C     C_3   0.182137 0.751012 0.612623 0.441052
H8    H     H_    0.302414 0.724693 0.595555 0.092964
H9    H     H_    0.089326 0.731195 0.569121 0.128409
C5    C     C_3   0.193030 0.858242 0.628184 -1.010392
H10   H     H_    0.293389 0.880203 0.667977 0.273935
H11   H     H_    0.217437 0.890102 0.578358 0.229612
H12   H     H_    0.075698 0.885009 0.650089 0.258387
Ba1   Ba    Ba6+2 0.843240 0.541620 0.463500 1.558627
C6    C     C_3   0.010009 0.250530 0.390184 0.413526
H13   H     H_    0.898605 0.282851 0.412823 0.106315
H14   H     H_    0.112589 0.265676 0.429555 0.128680
C7    C     C_3   0.982475 0.143834 0.374941 -0.950437
H15   H     H_    0.872532 0.126925 0.339545 0.304198
H16   H     H_    0.964898 0.112713 0.425557 0.219709
H17   H     H_    0.090228 0.110964 0.348282 0.245775
C8    C     C_3   0.687689 0.677047 0.675572 0.447167
H18   H     H_    0.811168 0.658072 0.657219 0.092847
H19   H     H_    0.602908 0.614572 0.665202 0.133455
C9    C     C_3   0.695592 0.708594 0.756047 -1.003522
H20   H     H_    0.784036 0.769204 0.768193 0.270232
H21   H     H_    0.735269 0.650161 0.785524 0.221897
H22   H     H_    0.572852 0.730292 0.774936 0.263022
P4    P     P_3+3 0.127890 0.590690 0.660240 0.454273
O12   O     O_2   0.301980 0.563840 0.672490 -0.371462
O13   O     O_3   0.054330 0.556590 0.583490 -0.406656
O14   O     O_3   0.555270 0.390630 0.635330 -0.381253
O15   O     O_3   0.138563 0.714274 0.675475 -0.572041
P5    P     P_3+3 0.130745 0.218615 0.607793 0.441629
O16   O     O_3   0.637720 0.384870 0.467990 -0.370243
O17   O     O_3   0.145220 0.339960 0.601250 -0.380134
O18   O     O_2   0.270300 0.171097 0.563855 -0.391643
O19   O     O_3   0.176835 0.200245 0.696236 -0.534688
Ba2   Ba    Ba6+2 0.346570 0.458460 0.536510 1.539172
P6    P     P_3+3 0.623386 0.601414 0.271588 0.460697
C10   C     C_3   0.548054 0.774642 0.268227 0.316970
H23   H     H_    0.452116 0.764640 0.225069 0.065200
H24   H     H_    0.510602 0.925063 0.287760 0.214060
O20   O     O_3   0.551980 0.615210 0.532020 -0.398815
C11   C     C_3   0.488105 0.289722 0.319124 0.253237
H25   H     H_    0.406395 0.337075 0.352589 0.062527
H26   H     H_    0.577750 0.334609 0.293842 0.105731
C12   C     C_3   0.382019 0.231634 0.260683 -0.082133
H27   H     H_    0.297417 0.184334 0.286156 0.133059
H28   H     H_    0.307688 0.280064 0.232166 0.089788
P7    P     P_3+3 0.576360 0.266336 0.450336 0.437878
O21   O     O_2   0.394410 0.269100 0.474240 -0.383153
O22   O     O_3   0.572994 0.227461 0.358110 -0.552715
H29   H     H_    0.127597 0.694667 0.145452 0.219392
C13   C     C_3   0.109770 0.273061 0.742855 0.427265
H30   H     H_    0.183054 0.339363 0.741176 0.125809
H31   H     H_    0.980912 0.285855 0.728141 0.006087
C14   C     C_3   0.116683 0.247733 0.819752 -0.410357
H32   H     H_    0.237304 0.218286 0.831823 0.225759
H33   H     H_    0.105039 0.313873 0.856945 0.140026
P8    P     P_3+3 0.569338 0.398515 0.728549 0.428729
C15   C     C_3   0.591079 0.218049 0.705166 0.498934
H34   H     H_    0.723953 0.232221 0.699702 0.015644
O23   O     O_2   0.429274 0.461006 0.758326 -0.401988
O24   O     O_3   0.522571 0.287236 0.754502 -0.530966
H35   H     H_    0.528694 0.215146 0.651793 0.144044
H36   H     H_    0.625672 0.067080 0.693693 0.220161
C16   C     C_3   0.568747 0.121983 0.731555 -0.954861
H37   H     H_    0.436543 0.103645 0.735129 0.285204
H38   H     H_    0.627806 0.123144 0.785481 0.269479
C17   C     C_R   0.007153 0.449510 0.048840 -0.118628
C18   C     C_R   0.932751 0.392001 0.097184 0.304637
C19   C     C_R   0.777120 0.431655 0.958484 -0.124046
C20   C     C_R   0.940491 0.458613 0.978810 0.059969
C21   C     C_R   0.720469 0.428789 0.887840 -0.149257
C22   C     C_R   0.820833 0.459159 0.835040 -0.026401
C23   C     C_R   0.975642 0.501619 0.856166 -0.020017
C24   C     C_R   0.035524 0.501954 0.928529 0.037955
C25   C     C_R   0.769435 0.451022 0.762141 0.179240
C26   C     C_R   0.871410 0.484877 0.711443 -0.534578
C27   C     C_R   0.016472 0.535619 0.731768 0.252226
C28   C     C_R   0.068932 0.545161 0.805356 -0.041383
C29   C     C_R   0.157694 0.497355 0.071188 0.024854
C30   C     C_R   0.216656 0.498708 0.143778 0.023009
C31   C     C_R   0.124414 0.453990 0.194266 -0.091892
C32   C     C_R   0.987732 0.398062 0.168786 -0.146135
H39   H     H_    0.832255 0.476782 0.655578 0.183593
H40   H     H_    0.596040 0.403530 0.875615 0.183216
H41   H     H_    0.926217 0.353884 0.203383 0.200909
C33   C     C_R   0.210485 0.597440 0.830202 -0.041749
C34   C     C_R   0.270067 0.597234 0.900245 -0.202677
C35   C     C_R   0.188464 0.546643 0.950122 0.046453
C36   C     C_R   0.250794 0.543388 0.021463 0.081261
C37   C     C_R   0.406381 0.582498 0.044420 -0.203945
C38   C     C_R   0.369011 0.543972 0.165653 0.009228
C39   C     C_R   0.463612 0.582746 0.114590 -0.165445
C40   C     C_R   0.422865 0.548782 0.238006 0.150261
C41   C     C_R   0.323441 0.511525 0.288192 -0.506767
C42   C     C_R   0.176237 0.462968 0.267950 0.236758
H42   H     H_    0.278952 0.638693 0.795808 0.162202
H43   H     H_    0.583451 0.614468 0.128088 0.170620
H44   H     H_    0.364429 0.517102 0.343743 0.186228
H45   H     H_    0.688330 0.414601 0.996962 0.171495
H46   H     H_    0.380118 0.639304 0.913792 0.126844
H47   H     H_    0.489471 0.612660 0.009050 0.133135
C43   C     C_R   0.695802 0.938533 0.540475 -0.128321
C44   C     C_R   0.509603 0.801124 0.498396 0.282345
C45   C     C_R   0.366493 0.766570 0.461060 -0.518865
C46   C     C_R   0.262136 0.827329 0.430822 0.232345
C47   C     C_R   0.307857 0.922099 0.431343 -0.310716
C48   C     C_R   0.454877 0.957674 0.465683 0.056292
C49   C     C_R   0.554898 0.898407 0.502030 0.003053
H48   H     H_    0.330895 0.692717 0.459414 0.175122
C50   C     C_R   0.640785 0.092271 0.502973 0.001939
C51   C     C_R   0.741005 0.034085 0.540051 0.061082
C52   C     C_R   0.685178 0.188686 0.504412 0.233737
C53   C     C_R   0.824983 0.226002 0.542416 -0.524813
C54   C     C_R   0.930969 0.167582 0.573835 0.259778
C55   C     C_R   0.887961 0.071871 0.574235 -0.330095
C56   C     C_R   0.499603 0.052686 0.465518 -0.109846
H49   H     H_    0.227376 0.968200 0.406255 0.158419
H50   H     H_    0.970041 0.027037 0.599590 0.155116
H51   H     H_    0.858015 0.300035 0.542749 0.173087
H52   H     H_    0.772671 0.896688 0.570782 0.167781
H53   H     H_    0.421281 0.095052 0.436208 0.164370
N1    N     N_R   0.480277 0.174029 0.209100 0.290219
O25   O     O_R   0.450841 0.173761 0.140705 -0.300962
O26   O     O_R   0.574165 0.110274 0.230448 -0.351402
N2    N     N_2   0.984284 0.182416 0.832832 -0.090459
H54   H     H_    0.959694 0.184473 0.886669 0.248078
C57   C     C_3   0.993973 0.086671 0.797548 -0.758381
H55   H     H_    0.896995 0.041368 0.817758 0.227762
H56   H     H_    0.114929 0.057154 0.808633 0.249355
H57   H     H_    0.972866 0.084830 0.738835 0.255065
N3    N     N_R   0.814502 0.318295 0.073465 0.231169
O27   O     O_R   0.686862 0.305857 0.111837 -0.358219
O28   O     O_R   0.845044 0.255973 0.019172 -0.390717

loop_
_geom_bond_atom_site_label_1
_geom_bond_atom_site_label_2
_geom_bond_distance
_ccdc_geom_bond_type
C12   H28   1.110875 S    
C11   H26   1.111067 S    
C51   C55   1.412693 A    
C21   C22   1.400091 A    
C23   C24   1.433737 A    
C13   H30   1.109805 S    
C2    H4    1.109588 S    
C15   H35   1.110641 S    
O16   P7    1.741278 S    
C47   C48   1.405068 A    
C37   C39   1.388232 A    
C25   C26   1.398198 A    
O13   Ba2   2.901812 S    
C53   C54   1.390519 A    
P4    O13   1.565736 S    
H36   C16   1.110542 S    
C33   C34   1.393047 A    
C4    C5    1.522179 S    
P7    C52   1.828196 S    
C26   H39   1.081649 S    
C43   C51   1.403723 A    
C1    H24   1.110699 S    
C5    H10   1.110757 S    
N2    C57   1.448844 S    
C47   H49   1.083920 S    
C14   H33   1.110933 S    
C48   C49   1.416500 A    
C56   H53   1.080207 S    
C57   H56   1.111615 S    
H1    C10   1.112245 S    
C16   H38   1.110666 S    
C34   H46   1.076432 S    
C12   N1    1.460291 S    
C50   C56   1.407471 A    
C40   C41   1.399619 A    
C20   C24   1.421697 A    
C6    C7    1.524068 S    
P4    C27   1.874818 S    
C41   C42   1.394622 A    
O1    Ba1   2.834757 S    
P1    O1    1.504868 D    
C3    H29   1.108558 S    
P7    O22   1.751310 S    
C35   C36   1.429510 A    
C15   C16   1.520725 S    
C44   C49   1.419909 A    
C8    C9    1.521921 S    
C48   C56   1.394747 A    
N2    H54   1.031064 S    
C14   N2    1.453073 S    
C50   C51   1.414651 A    
P2    O10   1.751800 S    
P4    O12   1.505235 D    
Ba2   O21   2.850973 S    
N3    O28   1.301207 A    
C1    H2    1.110825 S    
O6    P6    1.749921 S    
C17   C20   1.434589 A    
C39   H43   1.080332 S    
P5    O18   1.544920 D    
C17   C29   1.421516 A    
C8    H19   1.109636 S    
C12   H27   1.108357 S    
C11   C12   1.530744 S    
C10   H23   1.110067 S    
O14   P8    1.740457 S    
C13   H31   1.109798 S    
C43   H52   1.079171 S    
C31   C42   1.427728 A    
Ba1   Ba2   4.487037 S    
C15   O24   1.405230 S    
O6    C10   1.404811 S    
P5    O17   1.751613 S    
C7    H17   1.109208 S    
C55   H50   1.082444 S    
C28   C33   1.399935 A    
C30   C31   1.422198 A    
C29   C30   1.433647 A    
C33   H42   1.079403 S    
O12   Ba2   2.835241 S    
C2    C3    1.520435 S    
C14   H32   1.112866 S    
C37   H47   1.076452 S    
N1    O26   1.301239 A    
C57   H57   1.108820 S    
C19   C20   1.412110 A    
O16   Ba2   2.891113 S    
C16   H37   1.110593 S    
C15   H34   1.108866 S    
P4    O15   1.751244 S    
P2    C44   1.841475 S    
C22   C25   1.413238 A    
Ba2   O20   2.770228 S    
C4    H8    1.102322 S    
C24   C35   1.416982 A    
P1    Ba1   3.381353 S    
P1    O5    1.751503 S    
P1    O2    1.565931 S    
O10   C8    1.398156 S    
C9    H20   1.110727 S    
C4    O15   1.396311 S    
C21   H40   1.080859 S    
C19   C21   1.391041 A    
P2    O20   1.563430 S    
C27   C28   1.427189 A    
C6    H13   1.102032 S    
C43   C49   1.416292 A    
O2    Ba1   2.901052 S    
P1    C42   1.880776 S    
C18   N3    1.432386 S    
C1    H3    1.110616 S    
C18   C32   1.400176 A    
O3    Ba1   2.774155 S    
P3    O11   1.748887 S    
C8    H18   1.103698 S    
C11   O22   1.406764 S    
C26   C27   1.394310 A    
P3    O8    1.742206 S    
P6    C40   1.850845 S    
P5    C54   1.839884 S    
C13   C14   1.529994 S    
C3    H7    1.110574 S    
C4    H9    1.108919 S    
C46   C47   1.391796 A    
C17   C18   1.428981 A    
O2    Ba2   2.794051 S    
Ba1   O16   2.770753 S    
C31   C32   1.396856 A    
C38   C39   1.399117 A    
C7    H15   1.110426 S    
O19   C13   1.405465 S    
C36   C37   1.412899 A    
C2    H5    1.109574 S    
C23   C28   1.422656 A    
O14   Ba2   2.773486 S    
P8    C25   1.847283 S    
C5    H12   1.110681 S    
O7    Ba1   2.850653 S    
C54   C55   1.401722 A    
O8    Ba1   2.732773 S    
P8    O23   1.542968 D    
C52   C53   1.393070 A    
C29   C36   1.425304 A    
O5    C6    1.396932 S    
N1    O25   1.300647 A    
C7    H16   1.106606 S    
P2    O7    1.489701 D    
Ba1   O20   2.891870 S    
C9    H21   1.107598 S    
C30   C38   1.417218 A    
C57   H55   1.110777 S    
P8    O24   1.751174 S    
C44   C45   1.398206 A    
C45   H48   1.082079 S    
C45   C46   1.394240 A    
C5    H11   1.107522 S    
C6    H14   1.105778 S    
C22   C23   1.416357 A    
C9    H22   1.110838 S    
P7    O21   1.562913 D    
Ba1   O13   2.793511 S    
C11   H25   1.111795 S    
P3    C46   1.832998 S    
C41   H44   1.081571 S    
C53   H51   1.082329 S    
C50   C52   1.409984 A    
O4    P6    1.543562 D    
C19   H45   1.077807 S    
P3    O9    1.544953 D    
O3    P6    1.736848 S    
P4    Ba2   3.381781 S    
O11   C2    1.404614 S    
C3    H6    1.110627 S    
C1    C10   1.520702 S    
N3    O27   1.300150 A    
C34   C35   1.415985 A    
C32   H41   1.080242 S    
P2    Ba1   3.396692 S    
P5    O19   1.746930 S    
C38   C40   1.412064 A    
O17   Ba2   2.733348 S    
