data_mof_unit_pretest_1188.cif
_audit_creation_date              2012-12-10T18:20:39-0500
_audit_creation_method            fapswitch 2.2
_symmetry_space_group_name_H-M    P1
_symmetry_Int_Tables_number       1
_space_group_crystal_system       triclinic
_cell_length_a                    15.85744
_cell_length_b                    10.619739
_cell_length_c                    9.434364
_cell_angle_alpha                 90.340781
_cell_angle_beta                  90.092532
_cell_angle_gamma                 90.097272
_cell_volume                      1588.73208841

loop_
_atom_site_label
_atom_site_type_symbol
_atom_type_description
_atom_site_fract_x
_atom_site_fract_y
_atom_site_fract_z
_atom_type_partial_charge
C1    C     C_R   0.500296 0.259613 0.499584 0.828206
C2    C     C_R   0.500173 0.740364 0.500549 0.849382
C3    C     C_3   0.572418 0.957526 0.440261 -0.229733
C4    C     C_3   0.428501 0.042116 0.561763 -0.305501
C5    C     C_3   0.500764 0.877021 0.502146 -0.082981
C6    C     C_3   0.500313 0.122932 0.498771 -0.117847
C7    C     C_3   0.495775 0.959336 0.636854 -0.304307
C8    C     C_3   0.505480 0.039615 0.364458 -0.285978
C9    C     C_3   0.544095 0.590616 0.049809 0.620564
C10   C     C_3   0.455631 0.409547 0.950073 0.609055
C11   C     C_3   0.468581 0.604517 0.950157 -0.203552
C12   C     C_3   0.531047 0.395703 0.049992 -0.139046
C13   C     C_3   0.576260 0.487712 0.949492 -0.220446
C14   C     C_3   0.423582 0.512013 0.051328 -0.198691
C15   C     C_R   0.340026 0.499991 0.499907 0.806466
C16   C     C_R   0.659971 0.499941 0.500146 0.816181
C17   C     C_3   0.972379 0.406830 0.587461 -0.451199
C18   C     C_3   0.027579 0.594812 0.414106 -0.445925
C19   C     C_3   0.027673 0.390940 0.453336 0.372960
C20   C     C_3   0.972257 0.610668 0.548228 0.378689
C21   C     C_1   0.250409 0.500647 0.499780 -0.175539
C22   C     C_1   0.749587 0.499741 0.500591 -0.150264
C23   C     C_3   0.028224 0.519943 0.632552 0.593410
C24   C     C_3   0.971762 0.481668 0.369027 0.603184
C25   C     C_3   0.083305 0.502231 0.499605 -0.114204
C26   C     C_3   0.916687 0.499309 0.501895 -0.115326
C27   C     C_1   0.174899 0.501393 0.499728 0.099074
C28   C     C_1   0.825096 0.499555 0.501218 0.109489
C29   C     C_3   0.566076 0.041921 0.573023 0.518065
C30   C     C_3   0.434922 0.958312 0.428583 0.523421
Cu1   Cu    Cu3+1 0.500020 0.499990 0.643150 0.958221
Cu2   Cu    Cu3+1 0.499980 0.500010 0.356850 1.005195
H1    H     H_    0.949078 0.331396 0.658394 0.189954
H2    H     H_    0.050841 0.670424 0.343367 0.188315
H3    H     H_    0.631683 0.919954 0.394218 0.166580
H4    H     H_    0.369699 0.079658 0.609592 0.152967
H5    H     H_    0.491753 0.923182 0.746819 0.147426
H6    H     H_    0.508890 0.074100 0.253732 0.153698
H7    H     H_    0.443235 0.692450 0.903544 0.144056
H8    H     H_    0.555872 0.307435 0.096591 0.133615
H9    H     H_    0.640080 0.477376 0.902919 0.148395
H10   H     H_    0.360018 0.523294 0.098708 0.157331
N1    N     N_3   0.500060 0.499970 0.858290 -0.204007
N2    N     N_3   0.499940 0.500030 0.141710 -0.189819
O1    O     O_R   0.500040 0.316850 0.620870 -0.548729
O2    O     O_R   0.499960 0.683150 0.379130 -0.512711
O3    O     O_R   0.500000 0.316860 0.379090 -0.600573
O4    O     O_R   0.500000 0.683140 0.620910 -0.606460
O5    O     O_R   0.379090 0.499980 0.620870 -0.584495
O6    O     O_R   0.620910 0.500020 0.379130 -0.546268
O7    O     O_R   0.379060 0.499990 0.379090 -0.574735
O8    O     O_R   0.620940 0.500010 0.620910 -0.589282
O9    O     O_3   0.062706 0.278270 0.399893 -0.555560
C31   C     C_3   0.998558 0.187117 0.384159 0.113621
H11   H     H_    0.946551 0.221874 0.315339 0.187609
H12   H     H_    0.972661 0.160498 0.489251 0.132754
C32   C     C_3   0.035366 0.069661 0.315502 -0.794822
H13   H     H_    0.087954 0.033003 0.381214 0.241195
H14   H     H_    0.985911 0.995913 0.305938 0.209407
H15   H     H_    0.059330 0.092286 0.208083 0.258213
O10   O     O_3   0.936604 0.723084 0.601168 -0.548279
C33   C     C_3   0.000467 0.814146 0.620303 0.108713
H16   H     H_    0.028733 0.840386 0.516779 0.128294
H17   H     H_    0.050844 0.779454 0.692456 0.186936
C34   C     C_3   0.962195 0.931881 0.686237 -0.771420
H18   H     H_    0.935053 0.909506 0.791605 0.260302
H19   H     H_    0.011617 0.005229 0.699716 0.199560
H20   H     H_    0.911553 0.969012 0.616654 0.247320
F1    F     F_    0.941183 0.460076 0.233694 -0.633578
F2    F     F_    0.058874 0.541331 0.767880 -0.641548
O11   O     O_3   0.639044 0.091580 0.638958 -0.585960
C35   C     C_3   0.623964 0.112709 0.784371 0.056530
H21   H     H_    0.619063 0.021417 0.840609 0.140171
H22   H     H_    0.565261 0.167773 0.802309 0.193784
C36   C     C_3   0.697430 0.186427 0.847257 -0.764079
H23   H     H_    0.703972 0.278228 0.792527 0.254656
H24   H     H_    0.686251 0.203813 0.961866 0.197060
H25   H     H_    0.756819 0.132220 0.834664 0.250872
O12   O     O_3   0.367082 0.903120 0.353828 -0.577460
C37   C     C_3   0.315943 0.998536 0.296342 0.063578
H26   H     H_    0.353004 0.061734 0.226142 0.148095
H27   H     H_    0.286002 0.055186 0.382154 0.147944
C38   C     C_3   0.246525 0.937929 0.207798 -0.767044
H28   H     H_    0.206910 0.876198 0.275248 0.245837
H29   H     H_    0.206197 0.012041 0.160620 0.206308
H30   H     H_    0.274611 0.880748 0.120994 0.252546
O13   O     O_3   0.590310 0.689451 0.113647 -0.555482
C39   C     C_3   0.636882 0.753891 0.009540 0.049884
H31   H     H_    0.595132 0.789101 0.923435 0.128714
H32   H     H_    0.686144 0.691473 0.963488 0.162407
C40   C     C_3   0.680814 0.866267 0.077991 -0.775401
H33   H     H_    0.720466 0.834660 0.168119 0.261126
H34   H     H_    0.721850 0.913499 0.999187 0.209810
H35   H     H_    0.633259 0.934682 0.117224 0.234120
O14   O     O_3   0.414682 0.303579 0.890221 -0.601165
C41   C     C_3   0.327214 0.324829 0.875406 0.100671
H36   H     H_    0.306209 0.279289 0.775087 0.168235
H37   H     H_    0.309630 0.426077 0.866683 0.154463
C42   C     C_3   0.279751 0.263619 0.997306 -0.842477
H38   H     H_    0.300340 0.304486 0.100287 0.244343
H39   H     H_    0.210948 0.279241 0.984456 0.246708
H40   H     H_    0.292158 0.160773 0.997524 0.246211

loop_
_geom_bond_atom_site_label_1
_geom_bond_atom_site_label_2
_ccdc_geom_bond_type
O13   C39   S    
C4    H4    S    
C7    C29   S    
O14   C41   S    
Cu1   O8    S    
C13   H9    S    
O9    C31   S    
C2    O2    A    
C17   C23   S    
Cu1   N1    S    
C38   H28   S    
C18   C24   S    
C17   C26   S    
C14   N2    S    
C24   C26   S    
C4    C7    S    
C37   H26   S    
C11   C14   S    
C32   H14   S    
C41   C42   S    
C3    C29   S    
C20   O10   S    
C36   H24   S    
C9    C13   S    
C33   H17   S    
Cu1   Cu2   S    
C34   H19   S    
C41   H37   S    
C20   C23   S    
C11   N1    S    
C15   O7    A    
C14   H10   S    
C19   O9    S    
C23   C25   S    
C21   C27   T    
C22   C28   T    
C23   F2    S    
C18   C25   S    
C17   H1    S    
C8    H6    S    
Cu1   O5    S    
C35   C36   S    
C24   F1    S    
Cu2   N2    S    
C31   H12   S    
C1    C6    S    
C35   H22   S    
C3    C8    S    
C10   C14   S    
C40   H33   S    
C5    C7    S    
C1    O3    A    
C32   H15   S    
C6    C8    S    
C2    O4    A    
C12   H8    S    
C36   H23   S    
Cu2   O7    S    
C33   H16   S    
C40   H34   S    
C18   H2    S    
C42   H38   S    
C39   C40   S    
C3    H3    S    
C34   H20   S    
C41   H36   S    
C42   H40   S    
C7    H5    S    
C12   C13   S    
C11   H7    S    
C9    C11   S    
Cu2   O6    S    
C10   C12   S    
C30   O12   S    
C37   H27   S    
C38   H29   S    
C39   H32   S    
Cu1   O4    S    
Cu2   O3    S    
C4    C6    S    
C13   N1    S    
C37   C38   S    
C5    C30   S    
C31   H11   S    
C9    N2    S    
C16   C22   S    
C33   C34   S    
C42   H39   S    
C10   N1    S    
Cu2   O2    S    
C16   O8    A    
C16   O6    A    
C35   H21   S    
C3    C5    S    
C6    C29   S    
C25   C27   S    
C26   C28   S    
C8    C30   S    
C19   C24   S    
O11   C35   S    
C12   N2    S    
C9    O13   S    
C40   H35   S    
C1    O1    A    
C32   H13   S    
C20   C26   S    
C10   O14   S    
C17   C19   S    
C18   C20   S    
C15   O5    A    
O10   C33   S    
C19   C25   S    
C36   H25   S    
O12   C37   S    
C2    C5    S    
C15   C21   S    
C38   H30   S    
C39   H31   S    
C34   H18   S    
Cu1   O1    S    
C4    C30   S    
C29   O11   S    
C31   C32   S    
