data_mof_unit_pretest_1984.cif
_audit_creation_date              2012-12-10T18:17:01-0500
_audit_creation_method            fapswitch 2.2
_symmetry_space_group_name_H-M    P1
_symmetry_Int_Tables_number       1
_space_group_crystal_system       tetragonal
_cell_length_a                    29.165903
_cell_length_b                    29.165903
_cell_length_c                    38.967008
_cell_angle_alpha                 90.0
_cell_angle_beta                  90.0
_cell_angle_gamma                 90.0
_cell_volume                      33147.281373

loop_
_atom_site_label
_atom_site_type_symbol
_atom_type_description
_atom_site_fract_x
_atom_site_fract_y
_atom_site_fract_z
_atom_type_partial_charge
C1    C     C_R   0.500000 0.913186 0.000000 0.980267
C2    C     C_1   0.229444 0.500000 0.000000 0.045494
C3    C     C_R   0.000000 0.500000 0.894353 -0.336776
C4    C     C_R   0.000000 0.500000 0.605647 -0.336776
C5    C     C_R   0.500000 1.000000 0.605647 -0.336776
C6    C     C_R   0.000000 0.500000 0.394353 -0.336776
C7    C     C_R   0.500000 1.000000 0.394353 -0.336776
C8    C     C_R   0.500002 0.999998 0.284703 0.358435
C9    C     C_R   1.000000 0.500000 0.284703 0.358435
C10   C     C_R   0.500000 0.000000 0.715297 0.358435
C11   C     C_R   0.000002 0.499998 0.715297 0.358435
C12   C     C_R   0.000002 0.499998 0.784703 0.358435
C13   C     C_1   0.500000 0.229444 0.000000 0.045492
C14   C     C_R   0.500000 0.000000 0.784703 0.358435
C15   C     C_R   1.000000 0.500000 0.215297 0.358435
C16   C     C_R   0.500002 0.999998 0.215297 0.358435
C17   C     C_1   0.500000 0.862535 0.000000 -0.155835
C18   C     C_1   0.137465 0.500000 1.000000 -0.155834
C19   C     C_1   0.500000 0.137464 0.000000 -0.155830
C20   C     C_1   0.862535 0.500000 1.000000 -0.155829
C21   C     C_1   0.000000 0.362535 0.500000 -0.155835
C22   C     C_1   0.637464 0.000000 0.500000 -0.155834
C23   C     C_1   0.000000 0.637464 0.500000 -0.155830
C24   C     C_1   0.770556 0.500000 1.000000 0.045492
C25   C     C_1   0.362535 1.000000 0.500000 -0.155830
C26   C     C_1   0.500000 0.820350 0.000000 0.031465
C27   C     C_1   0.179650 0.500000 0.000000 0.031464
C28   C     C_1   0.500000 0.179650 0.000000 0.031454
C29   C     C_1   0.820350 0.500000 1.000000 0.031454
C30   C     C_1   0.000000 0.320350 0.500000 0.031466
C31   C     C_1   0.679650 0.000000 0.500000 0.031465
C32   C     C_1   0.000000 0.679650 0.500000 0.031455
C33   C     C_1   0.320350 1.000000 0.500000 0.031454
C34   C     C_1   0.000000 0.270556 0.500000 0.045494
C35   C     C_1   0.729444 0.000000 0.500000 0.045494
C36   C     C_1   0.000000 0.729444 0.500000 0.045492
C37   C     C_1   0.270556 1.000000 0.500000 0.045492
C38   C     C_1   0.500000 0.728364 0.000000 0.038253
C39   C     C_1   0.271636 0.500000 0.000000 0.038253
C40   C     C_1   0.500000 0.271636 0.000000 0.038253
C41   C     C_R   0.086814 0.500000 1.000000 0.980268
C42   C     C_1   0.728364 0.500000 1.000000 0.038253
C43   C     C_1   0.000000 0.228364 0.500000 0.038253
C44   C     C_1   0.771636 0.000000 0.500000 0.038253
C45   C     C_1   0.000000 0.771636 0.500000 0.038253
C46   C     C_1   0.228364 1.000000 0.500000 0.038253
C47   C     C_1   0.500000 0.678564 0.000000 0.029945
C48   C     C_1   0.321436 0.500000 0.000000 0.029945
C49   C     C_1   0.500000 0.321436 0.000000 0.029944
C50   C     C_1   0.678564 0.500000 1.000000 0.029944
C51   C     C_1   0.000000 0.178564 0.500000 0.029945
C52   C     C_R   0.500000 0.086814 0.000000 0.980286
C53   C     C_1   0.821436 0.000000 0.500000 0.029945
C54   C     C_1   0.000000 0.821436 0.500000 0.029944
C55   C     C_1   0.178564 0.000000 0.500000 0.029944
C56   C     C_1   0.500000 0.636369 0.000000 -0.174059
C57   C     C_1   0.363631 0.500000 0.000000 -0.174059
C58   C     C_1   0.500000 0.363631 0.000000 -0.174060
C59   C     C_1   0.636369 0.500000 0.000000 -0.174060
C60   C     C_1   0.000000 0.136369 0.500000 -0.174059
C61   C     C_1   0.863630 0.000000 0.500000 -0.174059
C62   C     C_1   0.000000 0.863630 0.500000 -0.174060
C63   C     C_R   0.913186 0.500000 1.000000 0.980287
C64   C     C_1   0.136369 0.000000 0.500000 -0.174060
C65   C     C_R   0.414280 0.500000 0.000000 0.873367
C66   C     C_R   0.500000 0.414280 0.000000 0.873367
C67   C     C_R   0.585720 0.500000 0.000000 0.873366
C68   C     C_R   0.500000 0.585720 0.000000 0.873366
C69   C     C_R   0.914280 0.000000 0.500000 0.873367
C70   C     C_R   0.000000 0.914280 0.500000 0.873367
C71   C     C_R   0.085720 0.000000 0.500000 0.873366
C72   C     C_R   0.000000 0.085720 0.500000 0.873366
C73   C     C_R   0.500000 1.000000 0.068048 1.057691
C74   C     C_R   0.000000 0.413186 0.500000 0.980266
C75   C     C_R   0.000000 0.500000 0.068048 1.057694
C76   C     C_R   0.500000 0.000000 0.931952 1.057694
C77   C     C_R   0.000000 0.500000 0.931952 1.057691
C78   C     C_R   1.000000 0.500000 0.568048 1.057691
C79   C     C_R   0.500000 0.000000 0.568048 1.057694
C80   C     C_R   1.000000 0.500000 0.431952 1.057693
C81   C     C_R   0.500000 0.000000 0.431952 1.057691
C82   C     C_R   0.470355 0.970111 0.123932 0.396086
C83   C     C_R   0.029889 0.470355 0.123932 0.396087
C84   C     C_R   0.529645 0.029888 0.123932 0.396087
C85   C     C_R   0.586814 0.000000 0.500000 0.980267
C86   C     C_R   0.970111 0.529645 0.123932 0.396086
C87   C     C_R   0.470355 0.029889 0.876068 0.396086
C88   C     C_R   0.029889 0.529645 0.876068 0.396086
C89   C     C_R   0.529645 0.970111 0.876068 0.396086
C90   C     C_R   0.970112 0.470355 0.876068 0.396088
C91   C     C_R   0.970355 0.470111 0.623932 0.396086
C92   C     C_R   0.529889 0.970355 0.623932 0.396087
C93   C     C_R   0.029645 0.529888 0.623932 0.396087
C94   C     C_R   0.470111 0.029645 0.623932 0.396086
C95   C     C_R   0.970355 0.529889 0.376068 0.396087
C96   C     C_R   0.000000 0.586814 0.500000 0.980285
C97   C     C_R   0.529889 0.029645 0.376068 0.396086
C98   C     C_R   0.029645 0.470111 0.376068 0.396087
C99   C     C_R   0.470112 0.970355 0.376068 0.396088
C100  C     C_R   0.470522 0.970894 0.159681 -0.198121
C101  C     C_R   0.029105 0.470522 0.159681 -0.198121
C102  C     C_R   0.529479 0.029104 0.159681 -0.198122
C103  C     C_R   0.970895 0.529478 0.159681 -0.198121
C104  C     C_R   0.470521 0.029105 0.840319 -0.198121
C105  C     C_R   0.029106 0.529478 0.840319 -0.198121
C106  C     C_R   0.529478 0.970895 0.840319 -0.198121
C107  C     C_R   0.413186 0.000000 0.500000 0.980286
C108  C     C_R   0.970896 0.470520 0.840319 -0.198122
C109  C     C_R   0.970522 0.470894 0.659681 -0.198121
C110  C     C_R   0.529105 0.970522 0.659681 -0.198121
C111  C     C_R   0.029480 0.529104 0.659681 -0.198122
C112  C     C_R   0.470895 0.029478 0.659681 -0.198121
C113  C     C_R   0.970521 0.529105 0.340319 -0.198122
C114  C     C_R   0.529106 0.029478 0.340319 -0.198121
C115  C     C_R   0.029479 0.470895 0.340319 -0.198122
C116  C     C_R   0.470896 0.970520 0.340319 -0.198122
C117  C     C_R   0.500001 0.999999 0.177671 -0.076379
C118  C     C_1   0.500000 0.770556 0.000000 0.045494
C119  C     C_R   1.000000 0.500000 0.177671 -0.076379
C120  C     C_R   0.500000 0.000000 0.822329 -0.076379
C121  C     C_R   0.000001 0.499999 0.822329 -0.076379
C122  C     C_R   0.000001 0.499999 0.677671 -0.076379
C123  C     C_R   0.500000 0.000000 0.677671 -0.076379
C124  C     C_R   1.000000 0.500000 0.322329 -0.076379
C125  C     C_R   0.500001 0.999999 0.322329 -0.076379
C126  C     C_R   0.500000 1.000000 0.105647 -0.336776
C127  C     C_R   1.000000 0.500000 0.105647 -0.336776
C128  C     C_R   0.500000 0.000000 0.894353 -0.336776
H1    H     H_    0.447748 0.948290 0.173613 0.213730
H2    H     H_    0.551710 0.947747 0.673612 0.213730
H3    H     H_    0.052254 0.551708 0.673612 0.213730
H4    H     H_    0.448290 0.052253 0.673612 0.213730
H5    H     H_    0.947747 0.551709 0.326387 0.213730
H6    H     H_    0.551710 0.052252 0.326387 0.213730
H7    H     H_    0.052253 0.448291 0.326387 0.213730
H8    H     H_    0.448292 0.947746 0.326387 0.213730
H9    H     H_    0.442626 0.877746 0.064409 0.383817
H10   H     H_    0.122261 0.442632 0.064413 0.383819
H11   H     H_    0.557366 0.122264 0.064417 0.383822
H12   H     H_    0.051710 0.447747 0.173612 0.213730
H13   H     H_    0.877737 0.557366 0.064415 0.383821
H14   H     H_    0.442633 0.122262 0.935585 0.383821
H15   H     H_    0.122254 0.557374 0.935591 0.383817
H16   H     H_    0.557369 0.877740 0.935587 0.383819
H17   H     H_    0.877736 0.442634 0.935583 0.383822
H18   H     H_    0.942626 0.377746 0.564409 0.383816
H19   H     H_    0.622260 0.942632 0.564413 0.383820
H20   H     H_    0.057366 0.622264 0.564416 0.383822
H21   H     H_    0.377737 0.057367 0.564415 0.383821
H22   H     H_    0.942632 0.622262 0.435586 0.383820
H23   H     H_    0.552254 0.051708 0.173612 0.213730
H24   H     H_    0.622254 0.057374 0.435591 0.383817
H25   H     H_    0.057369 0.377741 0.435588 0.383819
H26   H     H_    0.377736 0.942634 0.435584 0.383822
H27   H     H_    0.948290 0.552253 0.173612 0.213730
H28   H     H_    0.447747 0.051710 0.826387 0.213730
H29   H     H_    0.051710 0.552252 0.826387 0.213730
H30   H     H_    0.552253 0.948290 0.826387 0.213730
H31   H     H_    0.948292 0.447746 0.826387 0.213730
H32   H     H_    0.947748 0.448290 0.673613 0.213730
N1    N     N_R   0.528318 0.028314 0.232968 -0.148857
N2    N     N_R   0.471684 0.028317 0.732968 -0.148857
N3    N     N_R   0.971685 0.471683 0.732968 -0.148857
N4    N     N_R   0.528315 0.971683 0.732968 -0.148857
N5    N     N_R   0.028317 0.471685 0.267032 -0.148857
N6    N     N_R   0.471686 0.971682 0.267032 -0.148857
N7    N     N_R   0.971683 0.528315 0.267032 -0.148857
N8    N     N_R   0.528317 0.028315 0.267032 -0.148857
N9    N     N_R   0.971684 0.528316 0.232968 -0.148857
N10   N     N_R   0.471685 0.971683 0.232968 -0.148857
N11   N     N_R   0.028316 0.471683 0.232968 -0.148857
N12   N     N_R   0.528316 0.971684 0.767032 -0.148857
N13   N     N_R   0.971686 0.471682 0.767032 -0.148857
N14   N     N_R   0.471683 0.028316 0.767032 -0.148857
N15   N     N_R   0.028317 0.528315 0.767032 -0.148857
N16   N     N_R   0.028318 0.528314 0.732968 -0.148857
O1    O     O_R   0.535610 0.936800 0.000040 -0.593027
O2    O     O_R   0.563200 0.035610 0.500040 -0.593035
O3    O     O_R   0.964390 0.563200 0.500040 -0.593027
O4    O     O_R   0.436800 0.964390 0.500040 -0.593023
O5    O     O_R   0.035610 0.563200 0.499960 -0.593024
O6    O     O_R   0.563200 0.964390 0.499960 -0.593026
O7    O     O_R   0.964390 0.436800 0.499960 -0.593034
O8    O     O_R   0.436800 0.035610 0.499960 -0.593027
O9    O     O_R   0.535610 0.999940 0.050970 -0.571628
O10   O     O_R   0.000060 0.535610 0.050970 -0.571629
O11   O     O_R   0.464390 0.000060 0.050970 -0.571631
O12   O     O_R   0.063200 0.535610 0.000040 -0.593035
O13   O     O_R   0.999940 0.464390 0.050970 -0.571630
O14   O     O_R   0.535610 0.000060 0.949030 -0.571630
O15   O     O_R   0.000060 0.464390 0.949030 -0.571628
O16   O     O_R   0.464390 0.999940 0.949030 -0.571628
O17   O     O_R   0.999940 0.535610 0.949030 -0.571631
O18   O     O_R   0.035610 0.499940 0.550970 -0.571628
O19   O     O_R   0.500060 0.035610 0.550970 -0.571629
O20   O     O_R   0.964390 0.500060 0.550970 -0.571631
O21   O     O_R   0.499940 0.964390 0.550970 -0.571630
O22   O     O_R   0.035610 0.500060 0.449030 -0.571630
O23   O     O_R   0.464390 0.063200 0.000040 -0.593026
O24   O     O_R   0.500060 0.964390 0.449030 -0.571628
O25   O     O_R   0.964390 0.499940 0.449030 -0.571628
O26   O     O_R   0.499940 0.035610 0.449030 -0.571631
O27   O     O_R   0.436800 0.499970 0.028810 -0.586421
O28   O     O_R   0.500030 0.436800 0.028810 -0.586421
O29   O     O_R   0.563200 0.500030 0.028810 -0.586421
O30   O     O_R   0.499970 0.563200 0.028810 -0.586421
O31   O     O_R   0.436800 0.500030 0.971190 -0.586420
O32   O     O_R   0.500030 0.563200 0.971190 -0.586421
O33   O     O_R   0.563200 0.499970 0.971190 -0.586421
O34   O     O_R   0.936800 0.464390 0.000040 -0.593024
O35   O     O_R   0.499970 0.436800 0.971190 -0.586420
O36   O     O_R   0.936800 0.999970 0.528810 -0.586421
O37   O     O_R   0.000030 0.936800 0.528810 -0.586421
O38   O     O_R   0.063200 0.000030 0.528810 -0.586421
O39   O     O_R   0.999970 0.063200 0.528810 -0.586421
O40   O     O_R   0.936800 0.000030 0.471190 -0.586420
O41   O     O_R   0.000030 0.063200 0.471190 -0.586421
O42   O     O_R   0.063200 0.999970 0.471190 -0.586421
O43   O     O_R   0.999970 0.936800 0.471190 -0.586420
O44   O     O_2   0.414390 0.896629 0.129129 -0.266211
O45   O     O_R   0.535610 0.063200 0.999960 -0.593024
O46   O     O_2   0.395564 0.954271 0.085718 -0.256685
O47   O     O_3   0.464633 0.899952 0.074341 -0.588225
O48   O     O_2   0.103373 0.414393 0.129129 -0.266220
O49   O     O_2   0.045732 0.395565 0.085717 -0.256677
O50   O     O_3   0.100048 0.464636 0.074341 -0.588232
O51   O     O_2   0.585607 0.103372 0.129129 -0.266227
O52   O     O_2   0.604435 0.045732 0.085717 -0.256671
O53   O     O_3   0.535364 0.100048 0.074341 -0.588236
O54   O     O_2   0.896627 0.585607 0.129129 -0.266224
O55   O     O_2   0.954268 0.604434 0.085717 -0.256673
O56   O     O_R   0.063200 0.464390 0.999960 -0.593026
O57   O     O_3   0.899952 0.535364 0.074341 -0.588235
O58   O     O_2   0.414393 0.103373 0.870871 -0.266223
O59   O     O_2   0.395565 0.045732 0.914283 -0.256673
O60   O     O_3   0.464636 0.100048 0.925659 -0.588235
O61   O     O_2   0.103371 0.585610 0.870871 -0.266211
O62   O     O_2   0.045729 0.604436 0.914282 -0.256685
O63   O     O_3   0.100048 0.535367 0.925659 -0.588226
O64   O     O_2   0.585608 0.896628 0.870871 -0.266219
O65   O     O_2   0.604435 0.954269 0.914283 -0.256678
O66   O     O_3   0.535365 0.899952 0.925659 -0.588230
O67   O     O_R   0.464390 0.936800 0.999960 -0.593034
O68   O     O_2   0.896628 0.414393 0.870871 -0.266226
O69   O     O_2   0.954268 0.395565 0.914283 -0.256671
O70   O     O_3   0.899952 0.464636 0.925659 -0.588237
O71   O     O_2   0.914390 0.396629 0.629129 -0.266211
O72   O     O_2   0.895564 0.454271 0.585718 -0.256685
O73   O     O_3   0.964633 0.399952 0.574341 -0.588225
O74   O     O_2   0.603372 0.914392 0.629129 -0.266220
O75   O     O_2   0.545732 0.895565 0.585717 -0.256677
O76   O     O_3   0.600048 0.964635 0.574341 -0.588232
O77   O     O_2   0.085607 0.603372 0.629129 -0.266226
O78   O     O_R   0.936800 0.535610 0.999960 -0.593026
O79   O     O_2   0.104435 0.545732 0.585717 -0.256671
O80   O     O_3   0.035364 0.600048 0.574341 -0.588237
O81   O     O_2   0.396627 0.085607 0.629129 -0.266223
O82   O     O_2   0.454268 0.104435 0.585717 -0.256674
O83   O     O_3   0.399952 0.035364 0.574341 -0.588235
O84   O     O_2   0.914392 0.603372 0.370871 -0.266222
O85   O     O_2   0.895565 0.545731 0.414283 -0.256675
O86   O     O_3   0.964635 0.600048 0.425659 -0.588233
O87   O     O_2   0.603371 0.085610 0.370871 -0.266211
O88   O     O_2   0.545729 0.104436 0.414282 -0.256685
O89   O     O_R   0.035610 0.436800 0.500040 -0.593028
O90   O     O_3   0.600048 0.035367 0.425659 -0.588225
O91   O     O_2   0.085608 0.396628 0.370871 -0.266218
O92   O     O_2   0.104435 0.454269 0.414283 -0.256678
O93   O     O_3   0.035365 0.399952 0.425659 -0.588229
O94   O     O_2   0.396628 0.914393 0.370871 -0.266226
O95   O     O_2   0.454268 0.895565 0.414283 -0.256671
O96   O     O_3   0.399952 0.964636 0.425659 -0.588236
S1    S     S_3+6 0.434143 0.929594 0.103402 0.051822
S2    S     S_3+6 0.570407 0.934144 0.603402 0.051820
S3    S     S_3+6 0.065856 0.570407 0.603402 0.051819
S4    S     S_3+6 0.429592 0.065856 0.603402 0.051820
S5    S     S_3+6 0.934144 0.570407 0.396598 0.051820
S6    S     S_3+6 0.570406 0.065857 0.396598 0.051822
S7    S     S_3+6 0.065856 0.429593 0.396598 0.051821
S8    S     S_3+6 0.429593 0.934144 0.396598 0.051819
S9    S     S_3+6 0.070408 0.434144 0.103402 0.051820
S10   S     S_3+6 0.565856 0.070407 0.103402 0.051819
S11   S     S_3+6 0.929592 0.565855 0.103402 0.051819
S12   S     S_3+6 0.434144 0.070408 0.896598 0.051820
S13   S     S_3+6 0.070406 0.565857 0.896598 0.051822
S14   S     S_3+6 0.565856 0.929593 0.896598 0.051821
S15   S     S_3+6 0.929593 0.434144 0.896598 0.051819
S16   S     S_3+6 0.934143 0.429594 0.603402 0.051822
Zn1   Zn    Zn3+2 0.547570 0.000000 0.000000 1.144591
Zn2   Zn    Zn3+2 0.500000 0.500000 0.961560 1.021985
Zn3   Zn    Zn3+2 0.000000 0.000000 0.538440 1.021984
Zn4   Zn    Zn3+2 0.000000 0.000000 0.461560 1.021985
Zn5   Zn    Zn3+2 0.000000 0.547570 0.000000 1.144587
Zn6   Zn    Zn3+2 0.452430 0.000000 0.000000 1.144586
Zn7   Zn    Zn3+2 0.000000 0.452430 0.000000 1.144592
Zn8   Zn    Zn3+2 0.047570 0.500000 0.500000 1.144591
Zn9   Zn    Zn3+2 0.500000 0.047570 0.500000 1.144586
Zn10  Zn    Zn3+2 0.952430 0.500000 0.500000 1.144586
Zn11  Zn    Zn3+2 0.500000 0.952430 0.500000 1.144592
Zn12  Zn    Zn3+2 0.500000 0.500000 0.038440 1.021984

loop_
_geom_bond_atom_site_label_1
_geom_bond_atom_site_label_2
_ccdc_geom_bond_type
N5    N11   A    
O39   Zn3   S    
C85   O6    A    
C79   O21   A    
O22   Zn8   S    
C107  O4    A    
O69   S15   D    
C84   C102  A    
O33   Zn2   S    
O5    Zn8   S    
C11   C122  S    
O60   S12   S    
O75   S2    D    
C7    C97   A    
C108  C121  A    
O78   Zn5   S    
C92   C110  A    
C81   O24   A    
O30   Zn12  S    
C5    C94   A    
C91   S16   S    
C79   O19   A    
C48   C57   T    
N7    N9    A    
C108  H31   S    
O90   S6    S    
O67   Zn6   S    
C72   O41   A    
O92   S7    D    
C15   N9    A    
C11   N16   A    
C71   O42   A    
O64   S14   D    
H17   O70   S    
C3    C90   A    
C95   S5    S    
C17   C26   T    
C6    C98   A    
O55   S11   D    
C67   O33   A    
C75   O13   A    
O35   Zn2   S    
C14   N14   A    
C116  H8    S    
C93   S3    S    
C98   S7    S    
C94   S4    S    
O8    Zn9   S    
C74   O89   A    
O43   Zn4   S    
C22   C85   S    
C63   O78   A    
C60   C72   S    
O52   S10   D    
C40   C49   S    
C9    C124  S    
C24   C42   T    
C23   C96   S    
C62   C70   S    
O28   Zn12  S    
C78   O18   A    
C64   C71   S    
O94   S8    D    
H10   O50   S    
O10   Zn5   S    
C77   O17   A    
C24   C29   S    
O66   S14   S    
C13   C40   T    
C1    O67   A    
C59   C67   S    
C87   S12   S    
O1    Zn1   S    
O20   Zn10  S    
C44   C53   S    
C58   C66   S    
H21   O83   S    
C12   C121  S    
N15   N16   A    
C85   O2    A    
O26   Zn9   S    
O73   S16   S    
H16   O66   S    
C89   C106  A    
C68   O32   A    
C88   S13   S    
O88   S6    D    
C86   S11   S    
C106  C120  A    
O80   S3    S    
C19   C52   S    
C2    C27   S    
C109  H32   S    
O49   S9    D    
O65   S14   D    
C5    C79   S    
O93   S7    S    
C8    N8    A    
C96   O5    A    
O41   Zn4   S    
O12   Zn5   S    
C67   O29   A    
O18   Zn8   S    
C102  H23   S    
C103  H27   S    
C4    C91   A    
C66   O28   A    
O15   Zn7   S    
O63   S13   S    
O61   S13   D    
C89   S14   S    
O96   S8    S    
C113  H5    S    
C111  C122  A    
O70   S15   S    
C69   O40   A    
C53   C61   T    
O29   Zn12  S    
H26   O96   S    
C86   C103  A    
C2    C39   T    
H13   O57   S    
C106  H30   S    
C87   C128  A    
C73   O11   A    
C101  H12   S    
C20   C29   T    
O3    Zn10  S    
C84   C126  A    
C105  H29   S    
H19   O76   S    
C5    C92   A    
C22   C31   T    
C30   C34   S    
H18   O73   S    
O82   S4    D    
O4    Zn11  S    
C77   O15   A    
O24   Zn11  S    
H15   O63   S    
C9    N7    A    
C82   S1    S    
O9    Zn1   S    
C112  C123  A    
C14   N12   A    
C10   C123  S    
O77   S3    D    
C18   C41   S    
C57   C65   S    
C99   C116  A    
O72   S16   D    
C114  C125  A    
C100  H1    S    
O38   Zn3   S    
C54   C62   T    
C95   C113  A    
H24   O90   S    
O25   Zn10  S    
O40   Zn4   S    
O86   S5    S    
C84   S10   S    
C21   C74   S    
O23   Zn6   S    
O89   Zn8   S    
C33   C37   S    
C49   C58   T    
C87   C104  A    
C41   O12   A    
O79   S3    D    
C12   N13   A    
C112  H4    S    
C101  C119  A    
C46   C55   S    
C97   S6    S    
O54   S11   D    
C4    C78   S    
C35   C44   T    
O36   Zn3   S    
C110  C123  A    
C99   S8    S    
C86   C127  A    
C6    C80   S    
O48   S9    D    
O47   S1    S    
C41   O56   A    
O45   Zn1   S    
C80   O22   A    
C55   C64   T    
C13   C28   S    
C11   N3    A    
C114  H6    S    
C105  C121  A    
O83   S4    S    
H11   O53   S    
C52   O23   A    
C78   O20   A    
C104  H28   S    
C19   C28   T    
O62   S13   D    
O32   Zn2   S    
C38   C47   S    
O11   Zn6   S    
C7    C99   A    
C93   C111  A    
C12   N15   A    
N2    N14   A    
C102  C117  A    
O95   S8    D    
C7    C81   S    
C42   C50   S    
C45   C54   S    
N6    N10   A    
O58   S12   D    
C116  C125  A    
C68   O30   A    
C15   N11   A    
C31   C35   S    
N4    N12   A    
C75   O10   A    
C51   C60   T    
C50   C59   T    
C63   O34   A    
C92   S2    S    
C3    C77   S    
O51   S10   D    
O17   Zn5   S    
O27   Zn12  S    
C25   C107  S    
O21   Zn11  S    
C61   C69   S    
O19   Zn9   S    
C80   O25   A    
O81   S4    D    
C10   N4    A    
C115  C124  A    
C83   C101  A    
H22   O86   S    
O57   S11   S    
C3    C88   A    
C70   O37   A    
C1    C17   S    
O6    Zn11  S    
O7    Zn10  S    
H25   O93   S    
C18   C27   T    
C26   C118  S    
C83   C127  A    
O71   S16   D    
C73   O9    A    
C32   C36   S    
H20   O80   S    
C81   O26   A    
C65   O31   A    
C16   N1    A    
O87   S6    D    
C97   C114  A    
C21   C30   T    
H9    O47   S    
C14   C120  S    
O59   S12   D    
C36   C45   T    
C103  C119  A    
C82   C100  A    
H14   O60   S    
C91   C109  A    
O46   S1    D    
C9    N5    A    
C37   C46   T    
O50   S9    S    
C90   C108  A    
C74   O7    A    
C56   C68   S    
C16   C117  S    
C23   C32   T    
O56   Zn7   S    
O84   S5    D    
C111  H3    S    
C43   C51   S    
C98   C115  A    
C113  C124  A    
C115  H7    S    
O53   S10   S    
C20   C63   S    
C71   O38   A    
C76   C128  S    
O76   S2    S    
C8    N6    A    
C70   O43   A    
C94   C112  A    
C15   C119  S    
C88   C105  A    
C110  H2    S    
O2    Zn9   S    
C75   C127  S    
O34   Zn7   S    
C76   O16   A    
C96   O3    A    
O14   Zn1   S    
C109  C122  A    
C69   O36   A    
C83   S9    S    
N1    N8    A    
C76   O14   A    
C4    C93   A    
C38   C118  T    
C16   N10   A    
C8    C125  S    
C52   O45   A    
C72   O39   A    
O85   S5    D    
O91   S7    D    
O68   S15   D    
C10   N2    A    
C6    C95   A    
C25   C33   T    
C90   S15   S    
C65   O27   A    
C47   C56   T    
O74   S2    D    
O16   Zn6   S    
C100  C117  A    
O31   Zn2   S    
C104  C120  A    
C66   O35   A    
O44   S1    D    
C107  O8    A    
C1    O1    A    
C34   C43   T    
O37   Zn3   S    
C82   C126  A    
C73   C126  S    
O42   Zn4   S    
C39   C48   S    
O13   Zn7   S    
C89   C128  A    
N3    N13   A    
