data_mof_unit_pretest_1067.cif
_audit_creation_date              2012-12-10T20:14:15-0500
_audit_creation_method            fapswitch 2.2
_symmetry_space_group_name_H-M    P1
_symmetry_Int_Tables_number       1
_space_group_crystal_system       triclinic
_cell_length_a                    19.502876
_cell_length_b                    18.560269
_cell_length_c                    10.624869
_cell_angle_alpha                 92.73874
_cell_angle_beta                  90.630061
_cell_angle_gamma                 90.310951
_cell_volume                      3841.28209098

loop_
_atom_site_label
_atom_site_type_symbol
_atom_type_description
_atom_site_fract_x
_atom_site_fract_y
_atom_site_fract_z
_atom_type_partial_charge
C1    C     C_R   0.365373 0.499822 0.503851 0.845059
C2    C     C_R   0.519092 0.272676 0.392547 0.557780
C3    C     C_R   0.132143 0.308019 0.492713 -0.138523
C4    C     C_R   0.857540 0.603695 0.662005 0.111558
C5    C     C_R   0.882559 0.667194 0.612181 -0.170477
C6    C     C_R   0.905653 0.723982 0.693163 -0.142395
C7    C     C_R   0.906530 0.716494 0.823503 -0.109004
C8    C     C_R   0.884419 0.652131 0.873164 -0.110918
C9    C     C_R   0.859494 0.596050 0.792724 -0.065507
C10   C     C_R   0.433052 0.905382 0.306710 0.136594
C11   C     C_R   0.471473 0.859576 0.225804 -0.236483
C12   C     C_R   0.438439 0.809372 0.143188 -0.122000
C13   C     C_R   0.441700 0.728375 0.517737 0.571494
C14   C     C_R   0.366907 0.804940 0.140103 -0.065155
C15   C     C_R   0.328275 0.850968 0.218931 -0.133247
C16   C     C_R   0.361105 0.900845 0.302269 -0.023595
C17   C     C_R   0.579732 0.091752 0.673629 0.140363
C18   C     C_R   0.635449 0.131941 0.631462 -0.216843
C19   C     C_R   0.672485 0.177817 0.715760 -0.132456
C20   C     C_R   0.654288 0.183778 0.842707 -0.067476
C21   C     C_R   0.599169 0.143648 0.885660 -0.098884
C22   C     C_R   0.562047 0.097744 0.801648 -0.013212
C23   C     C_R   0.575399 0.937876 0.702179 0.150596
C24   C     C_R   0.477302 0.273339 0.599661 0.548116
C25   C     C_R   0.536253 0.913559 0.801936 -0.185212
C26   C     C_R   0.567793 0.900075 0.917057 -0.149229
C27   C     C_R   0.638437 0.910334 0.933157 -0.134476
C28   C     C_R   0.678149 0.931341 0.832362 -0.183689
C29   C     C_R   0.646845 0.944865 0.716957 -0.095891
C30   C     C_R   0.421962 0.059728 0.295252 0.162165
C31   C     C_R   0.354261 0.080326 0.320955 -0.221748
C32   C     C_R   0.310163 0.098650 0.223009 -0.168230
C33   C     C_R   0.333500 0.096740 0.098980 -0.121514
C34   C     C_R   0.400890 0.076260 0.072676 -0.126985
C35   C     C_R   0.563247 0.801173 0.483370 0.394394
C36   C     C_R   0.444874 0.057114 0.170199 -0.049518
C37   C     C_R   0.519367 0.196639 0.384993 0.380395
C38   C     C_R   0.443265 0.804040 0.530710 0.399432
C39   C     C_R   0.471204 0.197791 0.591895 0.408543
C40   C     C_R   0.504688 0.841747 0.512946 -0.292620
C41   C     C_R   0.494763 0.157702 0.485434 -0.317981
C42   C     C_R   0.468421 0.953701 0.403313 -0.053495
C43   C     C_R   0.634460 0.499818 0.499766 0.861308
C44   C     C_R   0.539144 0.044543 0.582564 -0.050776
C45   C     C_R   0.540229 0.968297 0.592472 -0.059288
C46   C     C_R   0.464913 0.030002 0.396037 -0.062237
C47   C     C_R   0.499851 0.076273 0.486454 0.202004
C48   C     C_R   0.504675 0.922530 0.503307 0.207099
C49   C     C_R   0.502352 0.498810 0.257412 0.978067
C50   C     C_R   0.495869 0.501335 0.742382 0.937802
C51   C     C_3   0.454122 0.547441 0.052542 0.504518
C52   C     C_3   0.541683 0.453899 0.948101 0.554429
C53   C     C_3   0.513231 0.567024 0.966382 0.539013
C54   C     C_R   0.965775 0.513140 0.420030 0.501516
C55   C     C_3   0.482032 0.434103 0.033551 0.637871
C56   C     C_3   0.432796 0.483245 0.962681 -0.324437
C57   C     C_3   0.562359 0.518339 0.037567 -0.314698
C58   C     C_3   0.492834 0.503090 0.877052 -0.380289
C59   C     C_3   0.502676 0.497932 0.122819 -0.400483
C60   C     C_R   0.746070 0.438296 0.447420 -0.090722
C61   C     C_R   0.251748 0.553106 0.580599 -0.080844
C62   C     C_R   0.253490 0.436212 0.460464 -0.101450
C63   C     C_R   0.747762 0.554130 0.569062 -0.098734
C64   C     C_R   0.818283 0.437400 0.451562 -0.007604
C65   C     C_R   0.033998 0.461723 0.630972 0.508201
C66   C     C_R   0.179527 0.546300 0.589431 -0.015357
C67   C     C_R   0.182132 0.430771 0.470207 -0.015997
C68   C     C_R   0.819570 0.549683 0.580171 -0.025006
C69   C     C_R   0.854244 0.492389 0.519381 0.205986
C70   C     C_R   0.145635 0.486335 0.531722 0.207673
C71   C     C_R   0.710257 0.498192 0.503346 -0.125329
C72   C     C_R   0.289318 0.497529 0.514101 -0.125159
C73   C     C_R   0.359068 0.463638 0.929695 0.142463
C74   C     C_R   0.304590 0.492865 0.000872 -0.158673
C75   C     C_R   0.237113 0.470343 0.975887 -0.220692
C76   C     C_R   0.036755 0.509564 0.421679 0.480717
C77   C     C_R   0.222913 0.419913 0.877573 -0.089907
C78   C     C_R   0.276052 0.392686 0.803138 -0.161557
C79   C     C_R   0.343673 0.414533 0.828902 -0.117550
C80   C     C_R   0.633468 0.542180 0.079044 0.121831
C81   C     C_R   0.692172 0.508450 0.028504 -0.205643
C82   C     C_R   0.757590 0.531139 0.068921 -0.183917
C83   C     C_R   0.765177 0.588165 0.158532 -0.125304
C84   C     C_R   0.707325 0.623179 0.206888 -0.135265
C85   C     C_R   0.641736 0.600527 0.167116 -0.085329
C86   C     C_R   0.710666 0.376956 0.378092 0.155072
C87   C     C_R   0.962875 0.464504 0.628742 0.492102
C88   C     C_R   0.717269 0.306421 0.419237 -0.137600
C89   C     C_R   0.699284 0.247319 0.338865 -0.144876
C90   C     C_R   0.674350 0.258242 0.217479 -0.004649
C91   C     C_R   0.664890 0.328331 0.178184 -0.030841
C92   C     C_R   0.681731 0.387310 0.259543 -0.132287
C93   C     C_R   0.285462 0.617273 0.646518 0.165005
C94   C     C_R   0.335207 0.608362 0.740625 -0.088233
C95   C     C_R   0.360230 0.667680 0.813585 -0.104934
C96   C     C_R   0.335586 0.736735 0.793831 -0.146363
C97   C     C_R   0.286359 0.746700 0.700152 -0.023805
C98   C     C_R   0.070816 0.484498 0.527626 -0.349685
C99   C     C_R   0.262344 0.687684 0.625393 -0.004569
C100  C     C_R   0.289019 0.379140 0.384429 0.160038
C101  C     C_R   0.298949 0.387895 0.256110 -0.187315
C102  C     C_R   0.332247 0.334802 0.182560 -0.044043
C103  C     C_R   0.357292 0.273475 0.238159 -0.012044
C104  C     C_R   0.346127 0.263824 0.365968 -0.210314
C105  C     C_R   0.311366 0.315964 0.438826 -0.090593
C106  C     C_R   0.713648 0.614976 0.637874 0.147774
C107  C     C_R   0.722895 0.685709 0.599324 0.006605
C108  C     C_R   0.702274 0.744369 0.676618 -0.114753
C109  C     C_R   0.928957 0.490743 0.523631 -0.354539
C110  C     C_R   0.673696 0.732628 0.793637 -0.157264
C111  C     C_R   0.665134 0.662681 0.832865 -0.041118
C112  C     C_R   0.683559 0.603746 0.754327 -0.149154
C113  C     C_R   0.856552 0.379246 0.382012 0.113516
C114  C     C_R   0.887666 0.323844 0.447145 -0.185079
C115  C     C_R   0.919768 0.266967 0.380508 -0.120891
C116  C     C_R   0.921322 0.265358 0.248860 -0.110130
C117  C     C_R   0.891434 0.320989 0.183684 -0.130867
C118  C     C_R   0.859081 0.377783 0.249950 -0.067464
C119  C     C_R   0.138809 0.601688 0.661245 0.094911
C120  C     C_R   0.559561 0.725311 0.476048 0.530217
C121  C     C_R   0.143583 0.607696 0.793167 -0.082587
C122  C     C_R   0.112331 0.665031 0.859899 -0.119798
C123  C     C_R   0.076822 0.717160 0.795091 -0.105512
C124  C     C_R   0.070908 0.710880 0.663800 -0.129862
C125  C     C_R   0.100673 0.652689 0.597075 -0.196260
C126  C     C_R   0.145774 0.365813 0.416217 0.107325
C127  C     C_R   0.129685 0.359535 0.287068 -0.090869
C128  C     C_R   0.101433 0.295407 0.234665 -0.123306
C129  C     C_R   0.089169 0.237441 0.310859 -0.130299
C130  C     C_R   0.103884 0.243985 0.439962 -0.142200
F1    F     F_    0.413248 0.599518 0.110769 -0.664133
F2    F     F_    0.537026 0.308232 0.290174 -0.574159
F3    F     F_    0.380877 0.694921 0.506770 -0.618303
F4    F     F_    0.460919 0.308319 0.709012 -0.599288
F5    F     F_    0.622490 0.834713 0.453517 -0.659797
F6    F     F_    0.544793 0.161656 0.280894 -0.661176
F7    F     F_    0.384202 0.840528 0.552859 -0.662413
F8    F     F_    0.442898 0.163892 0.689261 -0.634817
F9    F     F_    0.584332 0.403234 0.890624 -0.645012
F10   F     F_    0.524915 0.636549 0.930733 -0.685966
F11   F     F_    0.469155 0.364706 0.068816 -0.590301
F12   F     F_    0.932745 0.538430 0.318114 -0.649905
F13   F     F_    0.067000 0.437490 0.733497 -0.659538
F14   F     F_    0.072573 0.532092 0.321795 -0.642794
F15   F     F_    0.926965 0.441333 0.727975 -0.647026
F16   F     F_    0.614285 0.688302 0.432583 -0.662077
H1    H     H_    0.313553 0.530795 0.079362 0.209516
H2    H     H_    0.597457 0.629015 0.203707 0.210420
H3    H     H_    0.739778 0.297306 0.510658 0.126432
H4    H     H_    0.706354 0.193074 0.369353 0.133600
H5    H     H_    0.661439 0.212469 0.154705 0.146629
H6    H     H_    0.644340 0.336902 0.085149 0.192889
H7    H     H_    0.674886 0.441207 0.229915 0.140540
H8    H     H_    0.354534 0.555540 0.756874 0.110080
H9    H     H_    0.398323 0.660165 0.886112 0.219464
H10   H     H_    0.355240 0.782653 0.849847 0.136189
H11   H     H_    0.267761 0.800302 0.683677 0.156179
H12   H     H_    0.195850 0.491631 0.033690 0.173488
H13   H     H_    0.226473 0.697066 0.549731 0.129264
H14   H     H_    0.279881 0.435673 0.214535 0.139248
H15   H     H_    0.338944 0.341264 0.082898 0.191331
H16   H     H_    0.385234 0.233549 0.182245 0.191051
H17   H     H_    0.364900 0.216427 0.409434 0.133720
H18   H     H_    0.303402 0.307805 0.537543 0.124471
H19   H     H_    0.747517 0.695301 0.510773 0.136632
H20   H     H_    0.709946 0.798777 0.647118 0.179586
H21   H     H_    0.659214 0.777382 0.855408 0.167489
H22   H     H_    0.646116 0.654705 0.925819 0.200224
H23   H     H_    0.170844 0.401889 0.859200 0.209905
H24   H     H_    0.677726 0.549642 0.786191 0.136362
H25   H     H_    0.885719 0.324009 0.548968 0.168453
H26   H     H_    0.943019 0.223870 0.430853 0.131633
H27   H     H_    0.945725 0.221033 0.197274 0.118122
H28   H     H_    0.892841 0.319800 0.081806 0.149302
H29   H     H_    0.835261 0.420139 0.198688 0.147844
H30   H     H_    0.173240 0.569348 0.843533 0.153473
H31   H     H_    0.116956 0.669919 0.961552 0.146422
H32   H     H_    0.054188 0.762607 0.846537 0.117084
H33   H     H_    0.044274 0.751753 0.613366 0.129014
H34   H     H_    0.264677 0.354250 0.726217 0.137085
H35   H     H_    0.097415 0.649647 0.495183 0.178641
H36   H     H_    0.140372 0.403641 0.226923 0.165060
H37   H     H_    0.089621 0.290396 0.134855 0.139659
H38   H     H_    0.067874 0.187573 0.270020 0.115275
H39   H     H_    0.093988 0.199193 0.498891 0.128269
H40   H     H_    0.144785 0.312123 0.592340 0.147281
H41   H     H_    0.880570 0.674100 0.511563 0.147325
H42   H     H_    0.922263 0.774103 0.654985 0.120851
H43   H     H_    0.924312 0.760589 0.885994 0.116793
H44   H     H_    0.885043 0.646348 0.974049 0.144745
H45   H     H_    0.383597 0.394091 0.769206 0.231289
H46   H     H_    0.839550 0.547596 0.832008 0.158266
H47   H     H_    0.526972 0.861822 0.228741 0.168664
H48   H     H_    0.468291 0.773470 0.082349 0.188030
H49   H     H_    0.341375 0.765437 0.077509 0.145954
H50   H     H_    0.272877 0.847184 0.216952 0.128456
H51   H     H_    0.330565 0.934283 0.366014 0.144505
H52   H     H_    0.649883 0.127743 0.533358 0.145431
H53   H     H_    0.715271 0.208784 0.682684 0.130567
H54   H     H_    0.682893 0.219496 0.907708 0.123332
H55   H     H_    0.584936 0.148328 0.983876 0.168981
H56   H     H_    0.687980 0.464011 0.959520 0.198797
H57   H     H_    0.518945 0.067671 0.835741 0.137049
H58   H     H_    0.481018 0.908816 0.792711 0.156587
H59   H     H_    0.537261 0.883203 0.994541 0.143191
H60   H     H_    0.662567 0.900622 0.022938 0.144743
H61   H     H_    0.732998 0.938305 0.844293 0.135329
H62   H     H_    0.677658 0.964091 0.641149 0.146568
H63   H     H_    0.335244 0.080472 0.416370 0.153095
H64   H     H_    0.257915 0.114329 0.243286 0.148428
H65   H     H_    0.299378 0.111135 0.023318 0.146066
H66   H     H_    0.418671 0.074232 0.976508 0.157080
H67   H     H_    0.802445 0.504151 0.031247 0.160391
H68   H     H_    0.496262 0.038967 0.148223 0.147833
H69   H     H_    0.815871 0.605540 0.189846 0.183026
H70   H     H_    0.713458 0.668175 0.274624 0.194577
N1    N     N_R   0.500000 0.689440 0.500000 -0.238835
N2    N     N_R   0.500000 0.310560 0.500000 -0.258002
O1    O     O_R   0.398180 0.560840 0.499970 -0.535786
O2    O     O_R   0.601820 0.439160 0.500030 -0.601590
O3    O     O_R   0.601820 0.560840 0.500030 -0.557134
O4    O     O_R   0.398180 0.439160 0.499970 -0.632505
O5    O     O_R   0.499980 0.560800 0.313940 -0.580784
O6    O     O_R   0.500020 0.439200 0.686060 -0.531820
O7    O     O_R   0.500020 0.560800 0.686060 -0.601049
O8    O     O_R   0.499980 0.439200 0.313940 -0.528861
Zn1   Zn    Zn3+2 0.500000 0.581210 0.500000 1.074754
Zn2   Zn    Zn3+2 0.500000 0.418790 0.500000 1.068599

loop_
_geom_bond_atom_site_label_1
_geom_bond_atom_site_label_2
_ccdc_geom_bond_type
C117  H28   S    
C122  H31   S    
C14   H49   S    
C107  H19   S    
C120  F16   S    
C93   C94   A    
C55   F11   S    
C99   H13   S    
C10   C42   S    
C53   F10   S    
C88   H3    S    
C19   C20   A    
C85   H2    S    
C55   C56   S    
C25   H58   S    
C128  C129  A    
C52   F9    S    
C104  H17   S    
C114  C115  A    
C130  H39   S    
C123  C124  A    
C39   C41   A    
C106  C112  A    
C77   C78   A    
C50   O6    A    
C100  C105  A    
C126  C127  A    
C29   H62   S    
C22   H57   S    
C23   C45   S    
C23   C29   A    
C28   C29   A    
C43   O3    A    
C13   C38   A    
C65   C98   A    
C51   C56   S    
C55   C59   S    
C42   C46   A    
C5    C6    A    
C65   F13   S    
C61   C93   S    
C57   C59   S    
C121  H30   S    
C62   C67   A    
C106  C107  A    
O3    Zn1   S    
C76   C98   A    
C15   C16   A    
C3    C130  A    
C6    H42   S    
C24   C39   A    
C116  C117  A    
O2    Zn2   S    
C18   C19   A    
C73   C74   A    
C110  C111  A    
C20   H54   S    
C124  H33   S    
C36   H68   S    
C63   C68   A    
C69   C109  S    
C61   C66   A    
C112  H24   S    
C95   C96   A    
C101  H14   S    
C8    H44   S    
C68   C69   A    
C18   H52   S    
C2    F2    S    
C107  C108  A    
C92   H7    S    
C64   C113  S    
C9    H46   S    
C4    C9    A    
C93   C99   A    
C34   C36   A    
C44   C47   A    
C39   F8    S    
C79   H45   S    
C21   C22   A    
C49   O5    A    
C57   C80   S    
C35   C120  A    
C94   C95   A    
C128  H37   S    
C13   F3    S    
C123  H32   S    
O6    Zn2   S    
N2    Zn2   S    
C104  C105  A    
C97   C99   A    
C65   C87   A    
C119  C121  A    
C41   C47   S    
C114  H25   S    
C3    C126  A    
C1    C72   S    
C74   C75   A    
C86   C88   A    
C125  H35   S    
C50   C58   S    
C101  C102  A    
C21   H55   S    
C74   H1    S    
C7    C8    A    
C33   C34   A    
C84   C85   A    
C10   C11   A    
C67   C126  S    
C35   F5    S    
C91   C92   A    
C4    C68   S    
C60   C86   S    
C78   C79   A    
C8    C9    A    
C60   C71   A    
C25   C26   A    
C81   C82   A    
C54   C109  A    
C1    O4    A    
C51   C53   S    
C97   H11   S    
C80   C85   A    
C70   C98   S    
C82   H67   S    
C32   H64   S    
C110  H21   S    
C83   C84   A    
C31   H63   S    
O4    Zn2   S    
C30   C31   A    
C94   H8    S    
C96   C97   A    
C17   C18   A    
C73   C79   A    
C105  H18   S    
C62   C72   A    
C1    O1    A    
C42   C48   A    
C64   C69   A    
C20   C21   A    
C63   C106  S    
C75   C77   A    
C121  C122  A    
C6    C7    A    
C52   C58   S    
N1    Zn1   S    
C54   C76   A    
C15   H50   S    
C116  H27   S    
C75   H12   S    
C89   H4    S    
C54   F12   S    
C129  H38   S    
C12   C14   A    
C118  H29   S    
O8    Zn2   S    
C66   C119  S    
C26   C27   A    
C62   C100  S    
C80   C81   A    
C26   H59   S    
C51   C59   S    
C5    H41   S    
C19   H53   S    
C127  C128  A    
C89   C90   A    
C3    H40   S    
C76   F14   S    
C103  C104  A    
C44   C45   A    
C61   C72   A    
C2    N2    A    
C113  C114  A    
C45   C48   A    
C24   F4    S    
C40   C48   S    
C108  H20   S    
C46   C47   A    
C103  H16   S    
C43   C71   S    
C56   C73   S    
C87   F15   S    
C111  C112  A    
C12   H48   S    
C30   C46   S    
C31   C32   A    
C11   H47   S    
C63   C71   A    
C90   H5    S    
C53   C57   S    
C83   H69   S    
C53   C58   S    
C52   C55   S    
C81   H56   S    
C87   C109  A    
C66   C70   A    
C37   F6    S    
C17   C22   A    
C49   C59   S    
C30   C36   A    
C60   C64   A    
C27   H60   S    
O1    Zn1   S    
C32   C33   A    
C67   C70   A    
C35   C40   A    
C129  C130  A    
C17   C44   S    
C127  H36   S    
C86   C92   A    
C117  C118  A    
C38   C40   A    
C33   H65   S    
C2    C37   A    
C90   C91   A    
C91   H6    S    
C108  C110  A    
C102  H15   S    
C4    C5    A    
C100  C101  A    
O7    Zn1   S    
C38   F7    S    
C56   C58   S    
C95   H9    S    
C23   C25   A    
C37   C41   A    
C102  C103  A    
C34   H66   S    
C78   H34   S    
C52   C57   S    
C120  N1    A    
C113  C118  A    
C84   H70   S    
C115  H26   S    
C88   C89   A    
C77   H23   S    
C82   C83   A    
C96   H10   S    
C51   F1    S    
C27   C28   A    
C122  C123  A    
C28   H61   S    
C14   C15   A    
C7    H43   S    
C50   O7    A    
C10   C16   A    
C111  H22   S    
C13   N1    A    
C49   O8    A    
C119  C125  A    
C16   H51   S    
C115  C116  A    
C11   C12   A    
C124  C125  A    
O5    Zn1   S    
C43   O2    A    
C24   N2    A    
