data_mof_unit_pretest_1823.cif
_audit_creation_date              2012-12-11T18:32:26-0500
_audit_creation_method            fapswitch 2.2
_symmetry_space_group_name_H-M    P1
_symmetry_Int_Tables_number       1
_space_group_crystal_system       triclinic
_cell_length_a                    8.201877
_cell_length_b                    14.313823
_cell_length_c                    18.798034
_cell_angle_alpha                 94.485275
_cell_angle_beta                  92.673502
_cell_angle_gamma                 91.626953
_cell_volume                      2196.60208879

loop_
_atom_site_label
_atom_site_type_symbol
_atom_type_description
_atom_site_fract_x
_atom_site_fract_y
_atom_site_fract_z
_atom_type_partial_charge
Ba1   Ba    Ba6+2 0.841340 0.543980 0.464170 1.656234
Ba2   Ba    Ba6+2 0.348470 0.456100 0.535830 1.650194
C1    C     C_3   0.608182 0.877691 0.265943 -0.235332
C2    C     C_3   0.440355 0.513071 0.243314 -0.006936
C3    C     C_2   0.377010 0.521281 0.166767 -0.120771
C4    C     C_3   0.096832 0.744005 0.261371 0.320098
C5    C     C_2   0.218287 0.498386 0.146895 -0.078704
C6    C     C_2   0.106926 0.471714 0.204443 -0.125811
C7    C     C_1   0.161575 0.475718 0.272707 0.065547
C8    C     C_R   0.048026 0.494640 0.929476 0.491132
C9    C     C_R   0.157027 0.498376 0.069984 0.468204
C10   C     C_R   0.082441 0.529761 0.799640 -0.136738
C11   C     C_R   0.029066 0.520299 0.726687 0.062677
C12   C     C_3   0.600656 0.781344 0.295417 0.272142
C13   C     C_R   0.786037 0.435420 0.757197 0.005589
C14   C     C_R   0.838195 0.443947 0.829708 -0.139407
C15   C     C_R   0.989342 0.489564 0.852106 -0.076654
C16   C     C_3   0.058537 0.761053 0.183652 -0.341507
C17   C     C_R   0.884673 0.470097 0.706295 -0.272516
C18   C     C_R   0.699230 0.936013 0.539036 -0.037676
C19   C     C_R   0.510084 0.801226 0.498061 0.038493
C20   C     C_R   0.364704 0.769069 0.461392 -0.297558
C21   C     C_R   0.259357 0.831277 0.431109 0.005518
C22   C     C_R   0.305042 0.925688 0.431378 -0.096588
C23   C     C_3   0.484095 0.306244 0.323184 0.304678
C24   C     C_R   0.453717 0.959328 0.465357 -0.003610
C25   C     C_R   0.555935 0.898099 0.501322 -0.049025
C26   C     C_R   0.640979 0.091741 0.502295 -0.025485
C27   C     C_R   0.743796 0.031491 0.538686 0.001909
C28   C     C_3   0.189379 0.743460 0.611434 0.400275
C29   C     C_R   0.684899 0.188010 0.504055 0.019638
C30   C     C_R   0.826294 0.223043 0.542065 -0.272786
C31   C     C_R   0.934037 0.163059 0.573159 0.004729
C32   C     C_R   0.892483 0.067338 0.572396 -0.163482
C33   C     C_R   0.497908 0.054255 0.465243 -0.025642
C34   C     C_3   0.447030 0.269168 0.245882 -0.356679
C35   C     C_3   0.210962 0.848944 0.628785 0.482119
C36   C     C_3   0.007845 0.257454 0.391599 0.297960
C37   C     C_3   0.998953 0.151252 0.377082 -0.374209
C38   C     C_3   0.699354 0.666667 0.673638 0.325547
C39   C     C_3   0.718982 0.694519 0.753413 -0.369733
C40   C     C_2   0.449027 0.898949 0.229171 0.495609
C41   C     C_2   0.164481 0.279693 0.802884 0.549455
C42   C     C_3   0.079576 0.219943 0.741983 0.333493
C43   C     C_3   0.994919 0.133107 0.768005 -0.279811
C44   C     C_3   0.589283 0.207156 0.702573 0.354757
C45   C     C_3   0.564240 0.109843 0.728508 -0.334776
C46   C     C_2   0.301852 0.518457 0.293532 -0.269236
F1    F     F_    0.075231 0.883161 0.661840 -0.716880
H1    H     H_    0.716878 0.773681 0.326589 0.122906
H2    H     H_    0.612306 0.605596 0.664982 0.061012
H3    H     H_    0.638385 0.931644 0.310864 0.092111
H4    H     H_    0.810510 0.753287 0.763715 0.157719
H5    H     H_    0.760435 0.634479 0.782505 0.057591
H6    H     H_    0.600200 0.716845 0.773956 0.127571
H7    H     H_    0.498039 0.778235 0.331569 -0.021148
H8    H     H_    0.367021 0.324922 0.347013 0.023662
H9    H     H_    0.566016 0.369580 0.324551 0.031479
H10   H     H_    0.370679 0.203567 0.243887 0.161243
H11   H     H_    0.379284 0.321310 0.216602 0.059660
H12   H     H_    0.320760 0.864583 0.665074 0.022740
H13   H     H_    0.562611 0.254413 0.219226 0.129081
H14   H     H_    0.706673 0.880254 0.227459 0.092408
H15   H     H_    0.125949 0.711363 0.148403 0.074319
H16   H     H_    0.985282 0.264506 0.718704 -0.141211
H17   H     H_    0.086248 0.087090 0.791635 0.158601
H18   H     H_    0.906745 0.154323 0.808854 0.092267
H19   H     H_    0.927849 0.092399 0.722715 0.094370
H20   H     H_    0.720673 0.218215 0.693518 -0.068442
H21   H     H_    0.518166 0.209560 0.651101 0.096308
H22   H     H_    0.612227 0.056430 0.689512 0.066586
H23   H     H_    0.226467 0.884743 0.579259 -0.086695
H24   H     H_    0.432712 0.093741 0.734141 0.165790
H25   H     H_    0.053352 0.671549 0.269186 0.069012
H26   H     H_    0.629120 0.105653 0.781201 0.123197
H27   H     H_    0.463373 0.538817 0.127450 0.110651
H28   H     H_    0.981736 0.448683 0.190070 0.118104
H29   H     H_    0.195349 0.568536 0.815222 0.112612
H30   H     H_    0.760663 0.415218 0.868203 0.116403
H31   H     H_    0.314191 0.560864 0.344118 0.060206
H32   H     H_    0.843328 0.463448 0.650583 0.065284
H33   H     H_    0.328857 0.695578 0.459853 0.074716
H34   H     H_    0.890293 0.281983 0.410650 0.003477
H35   H     H_    0.223275 0.972936 0.406356 0.091635
H36   H     H_    0.977055 0.021154 0.596592 0.147740
H37   H     H_    0.231121 0.750355 0.272234 -0.027554
H38   H     H_    0.859040 0.296892 0.542607 0.060810
H39   H     H_    0.778116 0.892510 0.568870 0.145219
H40   H     H_    0.417700 0.098289 0.436419 0.104243
H41   H     H_    0.925464 0.750149 0.170753 0.139016
H42   H     H_    0.095412 0.833919 0.173675 0.140637
H43   H     H_    0.305197 0.715436 0.592767 -0.140061
H44   H     H_    0.091539 0.729763 0.568861 0.031244
H45   H     H_    0.105510 0.276184 0.433331 0.075535
H46   H     H_    0.405369 0.856714 0.181271 0.026099
H47   H     H_    0.219379 0.346409 0.792350 0.035649
H48   H     H_    0.894643 0.129971 0.338900 0.140551
H49   H     H_    0.982408 0.117208 0.427285 0.060510
H50   H     H_    0.114030 0.126715 0.354086 0.137735
H51   H     H_    0.819314 0.647412 0.653610 0.009209
N1    N     N_R   0.201382 0.527331 0.950791 -0.232797
N2    N     N_R   0.254480 0.529064 0.019255 -0.236953
N3    N     N_R   0.003415 0.466198 0.048750 -0.233758
N4    N     N_R   0.950485 0.464212 0.980255 -0.229401
O1    O     O_2   0.878750 0.447310 0.330740 -0.464382
O2    O     O_2   0.269279 0.167438 0.560433 -0.495686
O3    O     O_3   0.197765 0.190613 0.693659 -0.606131
O4    O     O_3   0.131030 0.448880 0.418060 -0.496342
O5    O     O_3   0.553640 0.613150 0.531430 -0.483128
O6    O     O_2   0.393070 0.270760 0.474720 -0.472308
O7    O     O_3   0.560969 0.236223 0.359189 -0.635987
O8    O     O_2   0.449166 0.450000 0.755825 -0.482599
O9    O     O_3   0.536256 0.275102 0.753783 -0.582179
O10   O     O_3   0.627390 0.618170 0.367170 -0.490215
O11   O     O_2   0.774235 0.571082 0.247788 -0.486566
O12   O     O_3   0.640910 0.743246 0.639469 -0.630953
O13   O     O_3   0.040236 0.297306 0.328009 -0.630754
O14   O     O_3   0.579416 0.710339 0.239340 -0.624485
O15   O     O_2   0.796630 0.729270 0.525320 -0.465154
O16   O     O_3   0.039210 0.666640 0.400620 -0.490498
O17   O     O_2   0.920104 0.833444 0.436163 -0.495464
O18   O     O_2   0.368326 0.963794 0.252502 -0.585637
O19   O     O_2   0.172450 0.255329 0.863778 -0.579915
O20   O     O_3   0.016936 0.810092 0.305499 -0.594515
O21   O     O_2   0.310950 0.552720 0.669300 -0.458289
O22   O     O_3   0.058670 0.551200 0.581940 -0.501470
O23   O     O_3   0.562310 0.381900 0.632830 -0.487844
O24   O     O_3   0.148183 0.702458 0.673437 -0.618870
O25   O     O_3   0.636050 0.386930 0.468580 -0.473575
O26   O     O_3   0.150490 0.333430 0.599380 -0.471567
P1    P     P_3+3 0.053470 0.419720 0.342720 0.985323
P2    P     P_3+3 0.625250 0.715650 0.546950 0.989729
P3    P     P_3+3 0.058667 0.787130 0.394463 0.943185
P4    P     P_3+3 0.136230 0.580350 0.657290 0.997521
P5    P     P_3+3 0.136014 0.212100 0.606189 0.959595
P6    P     P_3+3 0.606068 0.601081 0.274037 0.956578
P7    P     P_3+3 0.573097 0.269349 0.450870 0.939528
P8    P     P_3+3 0.583367 0.386362 0.726052 0.965714

loop_
_geom_bond_atom_site_label_1
_geom_bond_atom_site_label_2
_ccdc_geom_bond_type
O21   P4    D    
C12   H7    S    
C1    C40   S    
N1    N2    A    
C41   O19   D    
C36   H34   S    
C11   P4    S    
O26   P5    S    
C4    O20   S    
C34   H10   S    
C5    C6    S    
O1    P1    D    
C12   H1    S    
C5    C9    S    
O7    P7    S    
C24   C25   A    
Ba2   P4    S    
O20   P3    S    
C16   H42   S    
C20   H33   S    
C26   C27   A    
C22   C24   A    
O16   P3    S    
C28   H44   S    
Ba1   O25   S    
C36   C37   S    
C37   H48   S    
O11   P6    D    
C8    C15   S    
C13   C14   A    
Ba2   O25   S    
Ba1   Ba2   S    
Ba1   O15   S    
C39   H6    S    
O4    P1    S    
O3    P5    S    
Ba1   O5    S    
C36   O13   S    
C26   C33   A    
C14   C15   A    
C44   H20   S    
C10   H29   S    
C10   C15   A    
C43   H18   S    
C21   C22   A    
O2    P5    D    
O23   P8    S    
C29   P7    S    
C2    P6    S    
C13   P8    S    
Ba2   O23   S    
Ba1   P2    S    
C19   C25   A    
C19   C20   A    
C42   H16   S    
C23   H8    S    
C43   H19   S    
C34   H13   S    
C4    H25   S    
C18   C27   A    
C7    P1    S    
C4    C16   S    
C28   O24   S    
C11   C17   A    
C40   H46   S    
C16   H41   S    
O8    P8    D    
Ba1   O22   S    
C45   H24   S    
C28   H43   S    
C3    C5    D    
C21   P3    S    
C6    C7    D    
C37   H49   S    
Ba1   O4    S    
C12   O14   S    
C30   H38   S    
C27   C32   A    
C28   C35   S    
Ba1   O16   S    
C13   C17   A    
C41   C42   S    
C19   P2    S    
O24   P4    S    
C35   F1    S    
C31   P5    S    
C37   H50   S    
C29   C30   A    
O12   P2    S    
C45   H22   S    
C36   H45   S    
O5    P2    S    
C31   C32   A    
C39   H4    S    
Ba2   O5    S    
C1    C12   S    
Ba2   O22   S    
C38   C39   S    
C26   C29   A    
C6    H28   S    
C23   H9    S    
C33   H40   S    
C43   H17   S    
O14   P6    S    
C42   C43   S    
C40   O18   D    
C2    C46   S    
C42   O3    S    
C44   C45   S    
Ba2   O6    S    
O10   P6    S    
C44   O9    S    
O9    P8    S    
C8    N1    A    
C2    C3    S    
Ba1   P1    S    
O15   P2    D    
C38   H51   S    
C35   H12   S    
C1    H3    S    
C18   C25   A    
C1    H14   S    
C38   H2    S    
C4    H37   S    
C14   H30   S    
C30   C31   A    
C46   H31   S    
C3    H27   S    
C8    N4    A    
C22   H35   S    
C45   H26   S    
C16   H15   S    
C38   O12   S    
C18   H39   S    
Ba2   O4    S    
Ba2   O26   S    
C9    N2    A    
O6    P7    D    
O13   P1    S    
C39   H5    S    
C44   H21   S    
C23   O7    S    
C23   C34   S    
Ba2   O21   S    
C24   C33   A    
O25   P7    S    
C10   C11   A    
O22   P4    S    
C7    C46   D    
Ba1   O10   S    
C35   H23   S    
N3    N4    A    
C41   H47   S    
C34   H11   S    
C20   C21   A    
C9    N3    A    
O17   P3    D    
C17   H32   S    
C32   H36   S    
Ba1   O1    S    
