data_mof_unit_pretest_179.cif
_audit_creation_date              2012-12-11T15:20:38-0500
_audit_creation_method            fapswitch 2.2
_symmetry_space_group_name_H-M    P1
_symmetry_Int_Tables_number       1
_space_group_crystal_system       triclinic
_cell_length_a                    13.086994
_cell_length_b                    12.996739
_cell_length_c                    15.302739
_cell_angle_alpha                 116.822554
_cell_angle_beta                  63.861213
_cell_angle_gamma                 97.332132
_cell_volume                      2076.97973186

loop_
_atom_site_label
_atom_site_type_symbol
_atom_type_description
_atom_site_fract_x
_atom_site_fract_y
_atom_site_fract_z
_atom_type_partial_charge
Br1   Br    Br    0.149339 0.253494 0.144595 -0.604546
Br2   Br    Br    0.890329 0.287576 0.525890 -0.528270
Br3   Br    Br    0.769400 0.565827 0.793675 -0.587811
C1    C     C_R   0.021767 0.835186 0.031914 -0.141433
C2    C     C_R   0.319138 0.536496 0.780906 -0.148482
C3    C     C_R   0.243110 0.484879 0.109487 -0.111072
C4    C     C_R   0.701780 0.404355 0.209108 -0.145015
C5    C     C_R   0.984617 0.299922 0.696510 -0.080922
C6    C     C_R   0.332253 0.548823 0.079652 0.081240
C7    C     C_R   0.919186 0.208304 0.699158 0.082597
C8    C     C_R   0.325779 0.472256 0.678097 0.056858
C9    C     C_R   0.074471 0.141309 0.974464 0.043020
C10   C     C_R   0.912461 0.042470 0.430063 -0.249393
C11   C     C_R   0.896536 0.140853 0.525910 0.330993
C12   C     C_R   0.710291 0.427681 0.302603 0.036577
C13   C     C_R   0.881413 0.126998 0.617351 0.045534
C14   C     C_R   0.851616 0.020405 0.619357 -0.202112
C15   C     C_R   0.864102 0.924180 0.525290 -0.162123
C16   C     C_R   0.743666 0.547200 0.918929 0.285506
C17   C     C_R   0.906867 0.933225 0.427850 0.090203
C18   C     C_R   0.582343 0.537228 0.488210 -0.173980
C19   C     C_R   0.486808 0.550457 0.580296 -0.152075
C20   C     C_R   0.425967 0.455253 0.582457 0.117888
C21   C     C_R   0.461348 0.345803 0.495112 -0.227279
C22   C     C_R   0.562184 0.329344 0.403005 0.156466
C23   C     C_R   0.641960 0.518249 0.981829 0.067880
C24   C     C_R   0.619293 0.428098 0.398907 0.100736
C25   C     C_2   0.439827 0.545080 0.080929 -0.225528
C26   C     C_2   0.532492 0.535031 0.991238 -0.137319
C27   C     C_2   0.881496 0.968957 0.042730 0.100382
C28   C     C_R   0.942854 0.718272 0.315087 -0.128549
C29   C     C_2   0.884922 0.062664 0.128013 -0.175042
C30   C     C_R   0.663625 0.458414 0.026521 -0.171666
C31   C     C_R   0.028458 0.821816 0.223484 -0.144485
C32   C     C_R   0.805119 0.486169 0.302106 -0.117456
C33   C     C_R   0.919576 0.749355 0.938654 -0.135114
C34   C     C_R   0.954637 0.829250 0.325511 0.066308
C35   C     C_R   0.941524 0.856366 0.003720 0.071028
C36   C     C_3   0.607518 0.206500 0.317282 -0.473710
C37   C     C_3   0.644022 0.139975 0.362549 -0.160755
C38   C     C_3   0.633394 0.010178 0.308892 -0.954331
C39   C     C_3   0.813540 0.978945 0.987914 -0.398695
C40   C     C_3   0.699263 0.923909 0.015415 -0.273184
C41   C     C_3   0.661332 0.886343 0.924992 -0.871018
C42   C     C_3   0.349496 0.705588 0.017237 -0.456928
C43   C     C_3   0.334924 0.800924 0.129431 -0.250699
C44   C     C_3   0.331584 0.921990 0.137389 -0.877674
C45   C     C_R   0.315006 0.590566 0.019571 0.145966
C46   C     C_R   0.898840 0.203953 0.794151 -0.146408
C47   C     C_R   0.217563 0.450920 0.683581 -0.124268
C48   C     C_R   0.087334 0.246603 0.050526 0.328214
C49   C     C_R   0.997206 0.166751 0.946081 -0.213806
H1    H     H_    0.068191 0.899490 0.070477 0.106215
H2    H     H_    0.640781 0.353007 0.181417 0.100732
H3    H     H_    0.851508 0.842147 0.528732 0.124007
H4    H     H_    0.625501 0.613503 0.485547 0.128156
H5    H     H_    0.458079 0.635726 0.648513 0.126126
H6    H     H_    0.413000 0.272929 0.500706 0.132628
H7    H     H_    0.443728 0.539717 0.148232 0.145827
H8    H     H_    0.528428 0.535463 0.922118 0.169421
H9    H     H_    0.930690 0.061367 0.171879 0.147686
H10   H     H_    0.893519 0.689886 0.376652 0.096030
H11   H     H_    0.606221 0.411730 0.069223 0.123749
H12   H     H_    0.838550 0.153736 0.830516 0.095787
H13   H     H_    0.063777 0.893415 0.206381 0.108260
H14   H     H_    0.840624 0.508853 0.359671 0.130737
H15   H     H_    0.868591 0.734233 0.896150 0.170903
H16   H     H_    0.543121 0.993680 0.324122 0.260813
H17   H     H_    0.687362 0.972165 0.220420 0.271350
H18   H     H_    0.661681 0.966583 0.343427 0.260024
H19   H     H_    0.733610 0.155211 0.350944 0.215429
H20   H     H_    0.590671 0.171283 0.451268 0.205908
H21   H     H_    0.538990 0.163992 0.292522 0.196083
H22   H     H_    0.681480 0.204140 0.243362 0.195080
H23   H     H_    0.193494 0.408384 0.617172 0.115183
H24   H     H_    0.640480 0.963275 0.920160 0.250770
H25   H     H_    0.729661 0.828399 0.845484 0.284397
H26   H     H_    0.584991 0.837379 0.941185 0.257271
H27   H     H_    0.704714 0.847627 0.028107 0.206958
H28   H     H_    0.632564 0.987882 0.092311 0.202164
H29   H     H_    0.793783 0.071348 0.012353 0.183457
H30   H     H_    0.868344 0.937745 0.898873 0.188515
H31   H     H_    0.412144 0.934009 0.076669 0.266112
H32   H     H_    0.259243 0.936461 0.123659 0.262840
H33   H     H_    0.320169 0.987743 0.219643 0.250895
H34   H     H_    0.969397 0.105667 0.886358 0.125643
H35   H     H_    0.254193 0.794325 0.194065 0.207981
H36   H     H_    0.406954 0.789678 0.145195 0.205966
H37   H     H_    0.439127 0.696558 0.956590 0.183739
H38   H     H_    0.294862 0.732350 0.991022 0.199986
H39   H     H_    0.388222 0.570579 0.803380 0.117312
H40   H     H_    0.222020 0.460416 0.173459 0.171602
H41   H     H_    0.010828 0.335280 0.639211 0.164480
H42   H     H_    0.933319 0.051304 0.357123 0.153188
H43   H     H_    0.831774 0.006448 0.689376 0.129633
N1    N     N_R   0.037310 0.720000 0.995790 -0.044001
N2    N     N_R   0.824890 0.517960 0.936420 -0.069679
N3    N     N_R   0.003210 0.648190 0.211380 -0.042560
N4    N     N_R   0.774330 0.457010 0.995840 -0.059706
N5    N     N_R   0.053760 0.709140 0.151960 -0.043204
N6    N     N_R   0.853860 0.498840 0.211410 -0.043514
N7    N     N_R   0.974240 0.667310 0.936390 -0.039525
N8    N     N_R   0.225670 0.542990 0.004160 -0.067058
N9    N     N_R   0.946240 0.290860 0.848040 -0.041999
N10   N     N_R   0.146140 0.501160 0.788590 -0.038164
N11   N     N_R   0.025760 0.332690 0.063610 -0.069981
N12   N     N_R   0.962690 0.280000 0.004210 -0.056346
N13   N     N_R   0.209210 0.553840 0.847990 -0.048671
N14   N     N_R   0.175110 0.482040 0.063580 -0.057387
N15   N     N_R   0.996790 0.351810 0.788620 -0.049002
N16   N     N_R   0.790790 0.446160 0.152010 -0.037707
Ni1   Ni    Ni4+2 0.130310 0.630310 0.999970 0.204404
Ni2   Ni    Ni4+2 0.869690 0.369690 0.000030 0.204471
Ni3   Ni    Ni4+2 0.985640 0.509470 0.863740 0.262547
Ni4   Ni    Ni4+2 0.014360 0.490530 0.136260 0.241792

loop_
_geom_bond_atom_site_label_1
_geom_bond_atom_site_label_2
_ccdc_geom_bond_type
N9    N15   A    
C37   H19   S    
N1    N7    A    
C1    H1    S    
C31   C34   A    
C39   H30   S    
C46   N9    A    
C16   N2    A    
C33   H15   S    
C42   C43   S    
N1    Ni1   S    
C44   H33   S    
C25   C26   D    
C29   H9    S    
C2    C8    A    
C36   H22   S    
N11   N12   A    
C40   H27   S    
C27   C35   S    
C33   N7    A    
C28   N3    A    
C41   H24   S    
C16   C23   A    
N12   Ni2   S    
C9    C49   A    
C1    N1    A    
C49   N12   A    
C13   C14   A    
C47   N10   A    
C31   N5    A    
C20   C21   A    
Br3   C16   S    
C14   H43   S    
C44   H31   S    
C42   H37   S    
N15   Ni3   S    
C4    C12   A    
C18   C24   A    
C46   H12   S    
C10   C11   A    
C28   H10   S    
C39   H29   S    
C49   H34   S    
C3    C6    A    
C31   H13   S    
C12   C32   A    
N2    N4    A    
C38   H16   S    
C43   H36   S    
N10   N13   A    
C41   H26   S    
N10   Ni3   S    
C21   C22   A    
C36   C37   S    
C32   H14   S    
C40   H28   S    
C45   N8    A    
C28   C34   A    
N8    Ni1   S    
C30   N4    A    
C40   C41   S    
N7    Ni3   S    
C5    N15   A    
C23   C30   A    
C12   C24   S    
C26   H8    S    
C30   H11   S    
C14   C15   A    
N16   Ni2   S    
C44   H32   S    
C42   H38   S    
Br1   C48   S    
C2    H39   S    
C15   H3    S    
C6    C45   A    
C5    C7    A    
C37   C38   S    
C1    C35   A    
N5    Ni1   S    
N3    N5    A    
N6    Ni4   S    
C3    N14   A    
C11   C13   A    
C22   C24   A    
C39   C40   S    
C9    C48   A    
C38   H17   S    
C43   H35   S    
C42   C45   S    
C43   C44   S    
C41   H25   S    
C37   H20   S    
C10   C17   A    
C5    H41   S    
C32   N6    A    
N4    Ni2   S    
C18   H4    S    
N6    N16   A    
N11   Ni4   S    
C10   H42   S    
N8    N14   A    
C33   C35   A    
C8    C47   A    
C7    C13   S    
C47   H23   S    
C22   C36   S    
C27   C29   D    
C17   C34   S    
N3    Ni4   S    
C48   N11   A    
C3    H40   S    
C19   H5    S    
C8    C20   S    
C25   H7    S    
C4    N16   A    
C15   C17   A    
C36   H21   S    
Br2   C11   S    
N14   Ni4   S    
N9    Ni2   S    
N13   Ni1   S    
C23   C26   S    
C21   H6    S    
C19   C20   A    
C27   C39   S    
C4    H2    S    
N2    Ni3   S    
C18   C19   A    
C7    C46   A    
C6    C25   S    
C38   H18   S    
C2    N13   A    
