data_mof_unit_pretest_327.cif
_audit_creation_date              2012-12-10T16:46:45-0500
_audit_creation_method            fapswitch 2.2
_symmetry_space_group_name_H-M    P1
_symmetry_Int_Tables_number       1
_space_group_crystal_system       triclinic
_cell_length_a                    15.87482
_cell_length_b                    8.762044
_cell_length_c                    7.620311
_cell_angle_alpha                 103.600679
_cell_angle_beta                  95.763406
_cell_angle_gamma                 98.522319
_cell_volume                      1008.71617298

loop_
_atom_site_label
_atom_site_type_symbol
_atom_type_description
_atom_site_fract_x
_atom_site_fract_y
_atom_site_fract_z
_atom_type_partial_charge
C1    C     C_R   0.495100 0.199002 0.452309 0.772780
C2    C     C_3   0.955682 0.455409 0.676086 -0.117681
C3    C     C_3   0.917164 0.498976 0.500818 0.219159
C4    C     C_3   0.966978 0.664875 0.499976 -0.419993
C5    C     C_3   0.063868 0.659559 0.497808 -0.368742
C6    C     C_1   0.825185 0.504522 0.500501 -0.099354
C7    C     C_1   0.174560 0.490243 0.498150 -0.050362
C8    C     C_1   0.250372 0.494226 0.497448 -0.140873
C9    C     C_2   0.477059 0.027893 0.428889 -0.155013
C10   C     C_2   0.506709 0.969356 0.567909 -0.415108
C11   C     C_R   0.340520 0.500057 0.499188 0.760617
C12   C     C_R   0.501972 0.799943 0.546891 0.846336
C13   C     C_R   0.659711 0.503096 0.501088 0.823637
C14   C     C_3   0.053033 0.446783 0.671313 -0.433725
C15   C     C_3   0.028259 0.365631 0.330119 0.132273
C16   C     C_3   0.931557 0.378382 0.326142 -0.381493
C17   C     C_1   0.749675 0.505111 0.501740 -0.179187
C18   C     C_3   0.082297 0.490419 0.498273 0.222245
Cu1   Cu    Cu3+1 0.509300 0.517380 0.684380 0.930107
Cu2   Cu    Cu3+1 0.490700 0.482620 0.315620 0.937989
H1    H     H_    0.091631 0.532633 0.794392 0.202426
H2    H     H_    0.953895 0.558430 0.793047 0.143616
H3    H     H_    0.941066 0.702670 0.378785 0.174881
H4    H     H_    0.543168 0.047627 0.693381 0.166091
H5    H     H_    0.571998 0.624731 0.049182 0.208574
H6    H     H_    0.066797 0.326908 0.675923 0.194723
H7    H     H_    0.036446 0.244040 0.340333 0.114016
H8    H     H_    0.891974 0.259020 0.309823 0.150419
H9    H     H_    0.909125 0.419827 0.205708 0.202362
H10   H     H_    0.101775 0.748811 0.619373 0.149434
H11   H     H_    0.084460 0.694568 0.375422 0.194911
H12   H     H_    0.959035 0.755919 0.623356 0.166427
N1    N     N_2   0.476670 0.456430 0.038530 -0.145259
N2    N     N_2   0.523330 0.543570 0.961470 -0.203735
O1    O     O_R   0.506050 0.286130 0.619770 -0.595566
O2    O     O_R   0.490330 0.256780 0.308370 -0.620843
O3    O     O_R   0.387300 0.514690 0.655770 -0.588514
O4    O     O_R   0.371580 0.485340 0.344370 -0.583884
O5    O     O_R   0.509670 0.743220 0.691630 -0.595284
O6    O     O_R   0.493950 0.713870 0.380230 -0.555823
O7    O     O_R   0.628420 0.514660 0.655630 -0.574114
O8    O     O_R   0.612700 0.485310 0.344230 -0.583146
C19   C     C_R   0.902230 0.309126 0.713513 0.188056
C20   C     C_R   0.843365 0.332010 0.839952 -0.123779
C21   C     C_R   0.789173 0.202082 0.869188 -0.133072
C22   C     C_R   0.792048 0.047468 0.771004 -0.113243
C23   C     C_R   0.849631 0.022631 0.644633 -0.147904
C24   C     C_R   0.905056 0.151999 0.617028 -0.128276
H13   H     H_    0.838203 0.451157 0.914080 0.111190
H14   H     H_    0.744198 0.221609 0.966533 0.133715
H15   H     H_    0.749262 0.946972 0.791859 0.122681
H16   H     H_    0.850519 0.902935 0.566364 0.121686
H17   H     H_    0.949003 0.128365 0.518821 0.102081
C25   C     C_R   0.411960 0.931169 0.272300 0.134588
C26   C     C_R   0.333523 0.852475 0.305539 -0.146257
C27   C     C_R   0.270655 0.766305 0.160354 -0.127867
C28   C     C_R   0.284821 0.760171 0.981177 -0.108747
C29   C     C_R   0.362075 0.839114 0.946765 -0.082815
C30   C     C_R   0.425978 0.922962 0.091360 -0.117407
H18   H     H_    0.320962 0.858679 0.443955 0.108625
H19   H     H_    0.210586 0.705852 0.186857 0.164031
H20   H     H_    0.235606 0.695857 0.869041 0.129866
H21   H     H_    0.371712 0.837161 0.807902 0.140856
H22   H     H_    0.485655 0.982989 0.062298 0.137771
C31   C     C_R   0.395518 0.329993 0.952239 0.345006
C32   C     C_R   0.345062 0.249218 0.062120 -0.120834
C33   C     C_R   0.261731 0.159954 0.008267 -0.148564
C34   C     C_R   0.224067 0.126042 0.830649 -0.064053
C35   C     C_R   0.272537 0.173352 0.707615 -0.261059
C36   C     C_R   0.355559 0.264602 0.765608 -0.126441
H23   H     H_    0.362771 0.243548 0.195466 0.179326
H24   H     H_    0.227461 0.112123 0.105239 0.142808
H25   H     H_    0.160162 0.055481 0.786910 0.135126
H26   H     H_    0.246160 0.136484 0.564007 0.128771
H27   H     H_    0.377721 0.270181 0.645243 0.179816
Br1   Br    Br    0.067798 0.384571 0.101164 -0.661004

loop_
_geom_bond_atom_site_label_1
_geom_bond_atom_site_label_2
_ccdc_geom_bond_type
C20   H13   S    
C16   H8    S    
C15   C18   S    
C26   C27   A    
C14   C18   S    
Cu1   Cu2   S    
C3    C6    S    
C13   O7    A    
N1    C31   S    
C7    C8    T    
C21   C22   A    
C30   H22   S    
C14   H1    S    
Cu2   O6    S    
C31   C36   A    
C27   C28   A    
C33   H24   S    
C11   O3    A    
Cu1   O3    S    
C25   C26   A    
C23   C24   A    
C34   C35   A    
C2    H2    S    
C19   C24   A    
H5    N2    S    
C34   H25   S    
C32   C33   A    
C26   H18   S    
C10   C12   S    
C13   O8    A    
C25   C30   A    
C24   H17   S    
C33   C34   A    
C28   H20   S    
C1    C9    S    
C4    H3    S    
C5    C18   S    
C10   H4    S    
C29   C30   A    
C22   H15   S    
C12   O6    A    
C11   O4    A    
C19   C20   A    
Cu2   O4    S    
C15   H7    S    
C32   H23   S    
C2    C19   S    
C7    C18   S    
N1    N2    D    
C35   H26   S    
C14   H6    S    
C4    H12   S    
Cu1   O5    S    
Cu2   N1    S    
C3    C4    S    
C20   C21   A    
C1    O1    A    
C5    H10   S    
C9    C10   D    
C29   H21   S    
C6    C17   T    
C22   C23   A    
C4    C5    S    
Cu1   N2    S    
Cu2   O8    S    
C23   H16   S    
C13   C17   S    
C12   O5    A    
C2    C3    S    
C16   H9    S    
Cu1   O1    S    
C28   C29   A    
C21   H14   S    
C8    C11   S    
C15   Br1   S    
C35   C36   A    
C2    C14   S    
Cu2   O2    S    
Cu1   O7    S    
C31   C32   A    
C36   H27   S    
C27   H19   S    
C9    C25   S    
C3    C16   S    
C15   C16   S    
C1    O2    A    
C5    H11   S    
