data_mof_unit_pretest_1814.cif
_audit_creation_date              2012-12-10T17:51:19-0500
_audit_creation_method            fapswitch 2.2
_symmetry_space_group_name_H-M    P1
_symmetry_Int_Tables_number       1
_space_group_crystal_system       triclinic
_cell_length_a                    40.033631
_cell_length_b                    40.028789
_cell_length_c                    48.4935
_cell_angle_alpha                 89.880072
_cell_angle_beta                  90.175805
_cell_angle_gamma                 90.01563
_cell_volume                      77710.1867117

loop_
_atom_site_label
_atom_site_type_symbol
_atom_type_description
_atom_site_fract_x
_atom_site_fract_y
_atom_site_fract_z
_atom_type_partial_charge
C1    C     C_R   0.565210 0.000000 0.999993 0.966010
C2    C     C_R   0.000001 0.565207 0.000002 0.968826
C3    C     C_R   0.434795 0.999998 0.000006 0.969309
C4    C     C_R   1.000000 0.434798 0.000002 0.975244
C5    C     C_R   0.065208 0.500001 0.499981 0.970333
C6    C     C_R   0.500001 0.065204 0.500007 0.968541
C7    C     C_R   0.934794 0.499999 0.500017 0.970715
C8    C     C_R   0.500000 0.934795 0.499999 0.969282
C9    C     C_R   0.492835 0.006558 0.856361 -0.131116
C10   C     C_R   0.989200 0.490160 0.856409 -0.124480
C11   C     C_R   0.493178 0.991824 0.143431 -0.131472
C12   C     C_R   0.009652 0.490496 0.143739 -0.125462
C13   C     C_R   0.009533 0.490509 0.356343 -0.125296
C14   C     C_R   0.496238 0.995199 0.356193 -0.130168
C15   C     C_R   0.989924 0.489026 0.643532 -0.121760
C16   C     C_R   0.495116 0.004312 0.643827 -0.130976
C17   C     C_R   0.999996 0.065274 0.999970 0.970457
C18   C     C_R   0.934727 0.000036 0.999967 0.970581
C19   C     C_R   0.000003 0.934732 0.000022 0.970924
C20   C     C_R   0.065271 0.000027 0.000039 0.970811
C21   C     C_R   0.499995 0.565272 0.499970 0.970474
C22   C     C_R   0.434726 0.500032 0.499967 0.970434
C23   C     C_R   0.500002 0.434730 0.500022 0.970745
C24   C     C_R   0.565271 0.500024 0.500039 0.970837
C25   C     C_R   0.881440 0.021356 0.017370 0.238808
C26   C     C_R   0.977780 0.881371 0.016783 0.239439
C27   C     C_R   0.118684 0.978743 0.017585 0.238462
C28   C     C_R   0.022243 0.118570 0.016779 0.240420
C29   C     C_R   0.881319 0.978141 0.982921 0.239782
C30   C     C_R   0.978715 0.118675 0.982424 0.238625
C31   C     C_R   0.118560 0.022071 0.983114 0.239459
C32   C     C_R   0.021392 0.881404 0.982766 0.238334
C33   C     C_R   0.381429 0.521338 0.517364 0.238735
C34   C     C_R   0.477786 0.381368 0.516798 0.239473
C35   C     C_R   0.618678 0.478726 0.517581 0.238389
C36   C     C_R   0.522236 0.618562 0.516784 0.240382
C37   C     C_R   0.381321 0.478101 0.482939 0.239721
C38   C     C_R   0.478706 0.618667 0.482429 0.238488
C39   C     C_R   0.618560 0.522064 0.483119 0.239432
C40   C     C_R   0.521357 0.381394 0.482745 0.238429
C41   C     C_R   0.846381 0.020484 0.018352 0.556786
C42   C     C_R   0.977432 0.846257 0.016758 0.558385
C43   C     C_R   0.153764 0.979442 0.018437 0.557007
C44   C     C_R   0.022547 0.153684 0.016720 0.557863
C45   C     C_R   0.846212 0.977672 0.983125 0.557439
C46   C     C_R   0.979710 0.153738 0.981334 0.557205
C47   C     C_R   0.153668 0.022366 0.983138 0.558024
C48   C     C_R   0.020375 0.846356 0.981657 0.557168
C49   C     C_R   0.346374 0.520415 0.518382 0.556659
C50   C     C_R   0.477448 0.346252 0.516784 0.558537
C51   C     C_R   0.653759 0.479413 0.518428 0.557169
C52   C     C_R   0.522534 0.653674 0.516730 0.557587
C53   C     C_R   0.346212 0.477645 0.483121 0.557578
C54   C     C_R   0.479689 0.653730 0.481350 0.556886
C55   C     C_R   0.653668 0.522358 0.483145 0.557920
C56   C     C_R   0.520308 0.346348 0.481617 0.557266
C57   C     C_R   0.826592 0.998861 0.000962 -0.122165
C58   C     C_R   0.998711 0.826599 0.998994 -0.122712
C59   C     C_R   0.173424 0.001032 0.000949 -0.122228
C60   C     C_R   0.001316 0.173422 0.998832 -0.122339
C61   C     C_R   0.326587 0.498808 0.500977 -0.122142
C62   C     C_R   0.498683 0.326593 0.498986 -0.122645
C63   C     C_R   0.673421 0.501011 0.500948 -0.122282
C64   C     C_R   0.501295 0.673413 0.498849 -0.122446
C65   C     C_R   0.898387 0.999955 0.999971 -0.248609
C66   C     C_R   0.999836 0.898389 0.999999 -0.248102
C67   C     C_R   0.101618 0.000224 0.000174 -0.248258
C68   C     C_R   0.000204 0.101614 0.999831 -0.248362
C69   C     C_R   0.398384 0.499938 0.499971 -0.248532
C70   C     C_R   0.499828 0.398385 0.499998 -0.248088
C71   C     C_R   0.601616 0.500216 0.500175 -0.248283
C72   C     C_R   0.500200 0.601608 0.499832 -0.248399
C73   C     C_R   0.767347 0.977815 0.983970 0.538486
C74   C     C_R   0.019087 0.767520 0.981293 0.537072
C75   C     C_R   0.232542 0.021923 0.983756 0.538490
C76   C     C_R   0.980995 0.232603 0.980983 0.537278
C77   C     C_R   0.767529 0.019221 0.018690 0.537046
C78   C     C_R   0.022179 0.232566 0.016058 0.538941
C79   C     C_R   0.232633 0.980448 0.018562 0.537254
C80   C     C_R   0.977846 0.767370 0.016109 0.538421
C81   C     C_R   0.267341 0.477802 0.483948 0.538663
C82   C     C_R   0.518995 0.267514 0.481236 0.537212
C83   C     C_R   0.732538 0.521911 0.483768 0.538318
C84   C     C_R   0.480963 0.732592 0.481011 0.536892
C85   C     C_R   0.267525 0.519110 0.518748 0.536874
C86   C     C_R   0.522149 0.732552 0.516084 0.538616
C87   C     C_R   0.732628 0.480407 0.518551 0.537442
C88   C     C_R   0.477872 0.267362 0.516147 0.538660
C89   C     C_R   0.732447 0.978065 0.983798 0.538380
C90   C     C_R   0.019344 0.732595 0.981453 0.539496
C91   C     C_R   0.267440 0.021642 0.983552 0.538778
C92   C     C_R   0.980774 0.267531 0.981116 0.540714
C93   C     C_R   0.732606 0.019344 0.018631 0.539454
C94   C     C_R   0.022011 0.267471 0.016158 0.539003
C95   C     C_R   0.267558 0.980294 0.018468 0.539632
C96   C     C_R   0.978133 0.732465 0.016302 0.538200
C97   C     C_R   0.232439 0.478040 0.483788 0.538953
C98   C     C_R   0.519259 0.232588 0.481400 0.539660
C99   C     C_R   0.767436 0.521628 0.483563 0.538369
C100  C     C_R   0.480754 0.767520 0.481137 0.539781
C101  C     C_R   0.232602 0.519251 0.518676 0.539398
C102  C     C_R   0.521962 0.767455 0.516202 0.538337
C103  C     C_R   0.767554 0.480255 0.518459 0.540216
C104  C     C_R   0.478158 0.232456 0.516337 0.538654
C105  C     C_R   0.712675 0.998828 0.001102 -0.269702
C106  C     C_R   0.998900 0.712675 0.999001 -0.269541
C107  C     C_R   0.287350 0.000852 0.000907 -0.269353
C108  C     C_R   0.001266 0.287353 0.998754 -0.269511
C109  C     C_R   0.212668 0.498777 0.501114 -0.269525
C110  C     C_R   0.498873 0.212668 0.498994 -0.269468
C111  C     C_R   0.787346 0.500830 0.500912 -0.269529
C112  C     C_R   0.501232 0.787340 0.498788 -0.269552
C113  C     C_R   0.787285 0.998561 0.001268 -0.270848
C114  C     C_R   0.998465 0.787289 0.998743 -0.270929
C115  C     C_R   0.212739 0.001198 0.001135 -0.270780
C116  C     C_R   0.001563 0.212736 0.998566 -0.271063
C117  C     C_R   0.287280 0.498501 0.501284 -0.270857
C118  C     C_R   0.498432 0.287282 0.498734 -0.270929
C119  C     C_R   0.712736 0.501173 0.501135 -0.270922
C120  C     C_R   0.501535 0.712725 0.498590 -0.270923
C121  C     C_R   0.500196 0.000028 0.946282 0.967572
C122  C     C_R   0.999904 0.500176 0.946093 0.974748
C123  C     C_R   0.500135 0.999932 0.053650 0.972657
C124  C     C_R   0.000097 0.500249 0.053773 0.969147
C125  C     C_R   0.999733 0.499976 0.446225 0.968945
C126  C     C_R   0.499963 0.000110 0.446364 0.976084
C127  C     C_R   0.000256 0.499930 0.553921 0.971588
C128  C     C_R   0.500054 0.999749 0.553715 0.967833
C129  C     C_R   0.653705 0.020251 0.018650 0.559608
C130  C     C_R   0.978522 0.653608 0.017454 0.559730
C131  C     C_R   0.346465 0.979531 0.018600 0.560642
C132  C     C_R   0.021581 0.346309 0.017405 0.561781
C133  C     C_R   0.653598 0.978349 0.982682 0.559795
C134  C     C_R   0.979949 0.346456 0.981043 0.562113
C135  C     C_R   0.346281 0.021437 0.982482 0.560874
C136  C     C_R   0.020273 0.653686 0.981400 0.559989
C137  C     C_R   0.153700 0.520174 0.518689 0.560000
C138  C     C_R   0.478580 0.153598 0.517510 0.560590
C139  C     C_R   0.846462 0.479504 0.518599 0.561621
C140  C     C_R   0.521616 0.846297 0.517385 0.560331
C141  C     C_R   0.153588 0.478391 0.482626 0.561061
C142  C     C_R   0.479864 0.846439 0.481119 0.560245
C143  C     C_R   0.846275 0.521458 0.482520 0.560137
C144  C     C_R   0.520189 0.153678 0.481344 0.560318
C145  C     C_R   0.618604 0.020433 0.018257 0.247666
C146  C     C_R   0.979360 0.618524 0.017912 0.246596
C147  C     C_R   0.381566 0.979541 0.018345 0.249354
C148  C     C_R   0.020570 0.381383 0.018018 0.248813
C149  C     C_R   0.618513 0.979183 0.982204 0.246876
C150  C     C_R   0.979881 0.381565 0.981369 0.252522
C151  C     C_R   0.381362 0.020701 0.982082 0.248524
C152  C     C_R   0.020330 0.618580 0.981689 0.249196
C153  C     C_R   0.118598 0.520350 0.518304 0.247312
C154  C     C_R   0.479448 0.118515 0.517986 0.247969
C155  C     C_R   0.881564 0.479514 0.518342 0.252047
C156  C     C_R   0.520704 0.881377 0.517925 0.246541
C157  C     C_R   0.118504 0.479281 0.482112 0.250191
C158  C     C_R   0.479728 0.881547 0.481492 0.250174
C159  C     C_R   0.881357 0.520750 0.482136 0.246288
C160  C     C_R   0.520240 0.118572 0.481627 0.248562
C161  C     C_R   0.601551 0.999951 0.000095 -0.240631
C162  C     C_R   0.999965 0.601546 0.999914 -0.241161
C163  C     C_R   0.398465 0.000025 0.000102 -0.240201
C164  C     C_R   0.000054 0.398470 0.999866 -0.241488
C165  C     C_R   0.101546 0.499956 0.500076 -0.241222
C166  C     C_R   0.499965 0.101540 0.499920 -0.240539
C167  C     C_R   0.898462 0.500030 0.500122 -0.241511
C168  C     C_R   0.500054 0.898461 0.499870 -0.239980
C169  C     C_R   0.673362 0.999133 0.000813 -0.121506
C170  C     C_R   0.999230 0.673359 0.999288 -0.121625
C171  C     C_R   0.326663 0.000605 0.000661 -0.121705
C172  C     C_R   0.000941 0.326669 0.999061 -0.122512
C173  C     C_R   0.173355 0.499102 0.500813 -0.121786
C174  C     C_R   0.499211 0.173351 0.499285 -0.121741
C175  C     C_R   0.826659 0.500594 0.500674 -0.122037
C176  C     C_R   0.500912 0.826656 0.499092 -0.121745
C177  C     C_R   0.514363 0.026313 0.691301 0.665907
C178  C     C_R   0.964091 0.504987 0.690635 0.661785
C179  C     C_R   0.471006 0.987108 0.690913 0.666508
C180  C     C_R   0.005562 0.463734 0.691018 0.669713
C181  C     C_R   0.512308 0.969394 0.308941 0.664759
C182  C     C_R   0.994161 0.464785 0.309185 0.668093
C183  C     C_R   0.475160 0.014733 0.307917 0.658639
C184  C     C_R   0.034778 0.506780 0.309261 0.664173
C185  C     C_R   0.035327 0.505945 0.190943 0.668089
C186  C     C_R   0.467578 0.006620 0.191101 0.652717
C187  C     C_R   0.993352 0.465310 0.190867 0.664169
C188  C     C_R   0.511816 0.968160 0.191035 0.665764
C189  C     C_R   0.002860 0.462517 0.809473 0.660827
C190  C     C_R   0.470100 0.987371 0.809079 0.661619
C191  C     C_R   0.965117 0.507166 0.808639 0.665050
C192  C     C_R   0.509239 0.030796 0.809143 0.668055
C193  C     C_R   0.469366 0.986571 0.720491 -0.207564
C194  C     C_R   0.005018 0.461927 0.720451 -0.212348
C195  C     C_R   0.512881 0.029062 0.720535 -0.204140
C196  C     C_R   0.963059 0.505834 0.720005 -0.217483
C197  C     C_R   0.472518 0.013195 0.278666 -0.224242
C198  C     C_R   0.036815 0.506547 0.279622 -0.209293
C199  C     C_R   0.511606 0.966419 0.279728 -0.217574
C200  C     C_R   0.993373 0.464026 0.279793 -0.207550
C201  C     C_R   0.993573 0.463291 0.220516 -0.209333
C202  C     C_R   0.512212 0.966359 0.220343 -0.215179
C203  C     C_R   0.036077 0.506740 0.220333 -0.207370
C204  C     C_R   0.466120 0.005969 0.220402 -0.230591
C205  C     C_R   0.961958 0.504978 0.779483 -0.215503
C206  C     C_R   0.510395 0.031510 0.779601 -0.200255
C207  C     C_R   0.004307 0.461614 0.780027 -0.213640
C208  C     C_R   0.468019 0.987967 0.779724 -0.214215
C209  C     C_R   0.490539 0.008440 0.735243 -0.091301
C210  C     C_R   0.984196 0.484096 0.735204 -0.088181
C211  C     C_R   0.491324 0.988704 0.264446 -0.090344
C212  C     C_R   0.014458 0.485729 0.264929 -0.088728
C213  C     C_R   0.014382 0.485652 0.235201 -0.088841
C214  C     C_R   0.490023 0.986996 0.235156 -0.088915
C215  C     C_R   0.983784 0.483831 0.764761 -0.087599
C216  C     C_R   0.489654 0.009195 0.764915 -0.090083
C217  C     C_R   0.446335 0.965634 0.735770 0.456172
C218  C     C_R   0.023875 0.437596 0.736025 0.450869
C219  C     C_R   0.534173 0.051346 0.735681 0.444454
C220  C     C_R   0.940289 0.526749 0.735299 0.464196
C221  C     C_R   0.450002 0.033703 0.263209 0.465652
C222  C     C_R   0.060417 0.526632 0.264152 0.453167
C223  C     C_R   0.531189 0.942510 0.264735 0.463793
C224  C     C_R   0.973615 0.440200 0.264826 0.443343
C225  C     C_R   0.973478 0.439696 0.235991 0.453476
C226  C     C_R   0.533482 0.944233 0.235829 0.463063
C227  C     C_R   0.059894 0.526497 0.235319 0.442948
C228  C     C_R   0.443342 0.026086 0.235397 0.470914
C229  C     C_R   0.938323 0.524529 0.763913 0.467982
C230  C     C_R   0.531589 0.054132 0.764268 0.452786
C231  C     C_R   0.024168 0.437847 0.764791 0.457438
C232  C     C_R   0.446040 0.966286 0.764622 0.448964
C233  C     C_R   0.516123 0.026220 0.873416 0.534738
C234  C     C_R   0.974030 0.516842 0.872912 0.534253
C235  C     C_R   0.472444 0.984369 0.873712 0.537716
C236  C     C_R   0.009100 0.467906 0.873940 0.530518
C237  C     C_R   0.516791 0.972938 0.126290 0.535921
C238  C     C_R   0.987615 0.469922 0.126311 0.536209
C239  C     C_R   0.472702 0.014579 0.126409 0.534169
C240  C     C_R   0.027619 0.515236 0.126854 0.527565
C241  C     C_R   0.030072 0.512568 0.373775 0.536247
C242  C     C_R   0.477259 0.019240 0.372934 0.535303
C243  C     C_R   0.984774 0.472548 0.373183 0.527497
C244  C     C_R   0.517036 0.973443 0.373856 0.534778
C245  C     C_R   0.015870 0.472846 0.626972 0.530071
C246  C     C_R   0.475271 0.981453 0.626515 0.535780
C247  C     C_R   0.968318 0.509711 0.626114 0.536114
C248  C     C_R   0.517058 0.025209 0.626656 0.536069
C249  C     C_R   0.518550 0.022969 0.902066 0.488200
C250  C     C_R   0.978305 0.519931 0.901626 0.489900
C251  C     C_R   0.477012 0.980804 0.902205 0.486987
C252  C     C_R   0.015010 0.473615 0.902191 0.483212
C253  C     C_R   0.519650 0.977457 0.097673 0.485646
C254  C     C_R   0.982560 0.475668 0.097946 0.479734
C255  C     C_R   0.476085 0.017550 0.097620 0.486300
C256  C     C_R   0.023438 0.518450 0.098162 0.488124
C257  C     C_R   0.024280 0.517647 0.402091 0.479623
C258  C     C_R   0.479606 0.020783 0.401872 0.483803
C259  C     C_R   0.981483 0.476786 0.401835 0.488241
C260  C     C_R   0.518381 0.976072 0.402747 0.486748
C261  C     C_R   0.019213 0.477351 0.598315 0.491811
C262  C     C_R   0.477782 0.980164 0.597783 0.487590
C263  C     C_R   0.974436 0.515932 0.597967 0.481081
C264  C     C_R   0.519925 0.021706 0.598035 0.488341
C265  C     C_R   0.499349 0.000433 0.916326 -0.467513
C266  C     C_R   0.999034 0.498920 0.915925 -0.463818
C267  C     C_R   0.499355 0.999227 0.083548 -0.465522
C268  C     C_R   0.000933 0.499121 0.083831 -0.459769
C269  C     C_R   0.000802 0.499284 0.416169 -0.459594
C270  C     C_R   0.499755 0.999333 0.416485 -0.465221
C271  C     C_R   0.999095 0.499129 0.584122 -0.463657
C272  C     C_R   0.499912 0.999960 0.583675 -0.467859
Cu1   Cu    Cu3+1 0.500000 0.965740 0.000000 1.191921
Cu2   Cu    Cu3+1 0.034260 0.500000 0.000000 1.188964
Cu3   Cu    Cu3+1 0.500000 0.034260 0.000000 1.191992
Cu4   Cu    Cu3+1 0.965740 0.500000 0.000000 1.188105
Cu5   Cu    Cu3+1 0.000000 0.465740 0.500000 1.191664
Cu6   Cu    Cu3+1 0.534260 0.000000 0.500000 1.191580
Cu7   Cu    Cu3+1 0.000000 0.534260 0.500000 1.187736
Cu8   Cu    Cu3+1 0.465740 0.000000 0.500000 1.190641
Cu9   Cu    Cu3+1 0.000000 0.000000 0.971840 1.165524
Cu10  Cu    Cu3+1 0.000000 1.000000 0.028160 1.165718
Cu11  Cu    Cu3+1 0.500000 0.500000 0.471840 1.165447
Cu12  Cu    Cu3+1 0.500000 0.500000 0.528160 1.165796
N1    N     N_R   0.493333 0.006136 0.675443 -0.397957
N2    N     N_R   0.986574 0.485955 0.675041 -0.391012
N3    N     N_R   0.494459 0.993089 0.324392 -0.389141
N4    N     N_R   0.012812 0.487367 0.324820 -0.397350
N5    N     N_R   0.012764 0.487270 0.175291 -0.397451
N6    N     N_R   0.490691 0.988771 0.175125 -0.389419
N7    N     N_R   0.985603 0.486575 0.824925 -0.389291
N8    N     N_R   0.490413 0.008472 0.824775 -0.397755
O1    O     O_R   0.549920 0.971060 0.999980 -0.549895
O2    O     O_R   0.028940 0.549920 0.999980 -0.551867
O3    O     O_R   0.450080 0.028940 0.999980 -0.550051
O4    O     O_R   0.971060 0.450080 0.999980 -0.552073
O5    O     O_R   0.549920 0.028940 0.000020 -0.552008
O6    O     O_R   0.028940 0.450080 0.000020 -0.550175
O7    O     O_R   0.450080 0.971060 0.000020 -0.551664
O8    O     O_R   0.971060 0.549920 0.000020 -0.550661
O9    O     O_R   0.049920 0.471060 0.499980 -0.550433
O10   O     O_R   0.528940 0.049920 0.499980 -0.551893
O11   O     O_R   0.950080 0.528940 0.499980 -0.550134
O12   O     O_R   0.471060 0.950080 0.499980 -0.552468
O13   O     O_R   0.049920 0.528940 0.500020 -0.551499
O14   O     O_R   0.528940 0.950080 0.500020 -0.549541
O15   O     O_R   0.950080 0.471060 0.500020 -0.551885
O16   O     O_R   0.471060 0.049920 0.500020 -0.550631
O17   O     O_R   0.499990 0.971060 0.958930 -0.544062
O18   O     O_R   0.028940 0.499990 0.958930 -0.548451
O19   O     O_R   0.500010 0.028940 0.958930 -0.547331
O20   O     O_R   0.971060 0.500010 0.958930 -0.553972
O21   O     O_R   0.499990 0.028940 0.041070 -0.545675
O22   O     O_R   0.028940 0.500010 0.041070 -0.549735
O23   O     O_R   0.500010 0.971060 0.041070 -0.550130
O24   O     O_R   0.971060 0.499990 0.041070 -0.544946
O25   O     O_R   0.999990 0.471060 0.458930 -0.548721
O26   O     O_R   0.528940 0.999990 0.458930 -0.547820
O27   O     O_R   0.000010 0.528940 0.458930 -0.546026
O28   O     O_R   0.471060 0.000010 0.458930 -0.550917
O29   O     O_R   0.999990 0.528940 0.541070 -0.547586
O30   O     O_R   0.528940 0.000010 0.541070 -0.545138
O31   O     O_R   0.000010 0.471060 0.541070 -0.550818
O32   O     O_R   0.471060 0.999990 0.541070 -0.546325
O33   O     O_2   0.538389 0.043555 0.679419 -0.413560
O34   O     O_2   0.940966 0.521988 0.677654 -0.437350
O35   O     O_2   0.448814 0.968564 0.678438 -0.434754
O36   O     O_2   0.024444 0.441706 0.678388 -0.427960
O37   O     O_2   0.532087 0.948368 0.321777 -0.434675
O38   O     O_2   0.977461 0.440712 0.321566 -0.407436
O39   O     O_2   0.456876 0.037910 0.319952 -0.428895
O40   O     O_2   0.055336 0.527320 0.321674 -0.434845
O41   O     O_2   0.059386 0.522674 0.178592 -0.407113
O42   O     O_2   0.446241 0.027108 0.178882 -0.418078
O43   O     O_2   0.972832 0.444727 0.178464 -0.434722
O44   O     O_2   0.533035 0.948424 0.178472 -0.436456
O45   O     O_2   0.017396 0.437752 0.822429 -0.433170
O46   O     O_2   0.452449 0.963814 0.821240 -0.412823
O47   O     O_2   0.948274 0.531190 0.820422 -0.437233
O48   O     O_2   0.527332 0.053573 0.821378 -0.433084
O49   O     O_R   0.000010 0.049920 0.976260 -0.553183
O50   O     O_R   0.950080 0.000010 0.976260 -0.554860
O51   O     O_R   0.999990 0.950080 0.976260 -0.552948
O52   O     O_R   0.049920 0.999990 0.976260 -0.554372
O53   O     O_R   0.000010 0.950080 0.023740 -0.554723
O54   O     O_R   0.950080 0.999990 0.023740 -0.552737
O55   O     O_R   0.999990 0.049920 0.023740 -0.554075
O56   O     O_R   0.049920 0.000010 0.023740 -0.553293
O57   O     O_R   0.500010 0.549920 0.476260 -0.553258
O58   O     O_R   0.450080 0.500010 0.476260 -0.554745
O59   O     O_R   0.499990 0.450080 0.476260 -0.552874
O60   O     O_R   0.549920 0.499990 0.476260 -0.554479
O61   O     O_R   0.500010 0.450080 0.523740 -0.554540
O62   O     O_R   0.450080 0.499990 0.523740 -0.552737
O63   O     O_R   0.499990 0.549920 0.523740 -0.554161
O64   O     O_R   0.549920 0.500010 0.523740 -0.553244
O65   O     O_3   0.421407 0.944935 0.725160 -0.610182
H1    H     H_    0.423840 0.937018 0.706169 0.408665
O66   O     O_3   0.039501 0.409153 0.725445 -0.578064
H2    H     H_    0.052818 0.413844 0.707556 0.392535
O67   O     O_3   0.560723 0.068953 0.724604 -0.593304
H3    H     H_    0.554120 0.082170 0.708146 0.395753
O68   O     O_3   0.919144 0.551633 0.725049 -0.610036
H4    H     H_    0.915467 0.552730 0.705119 0.408768
O69   O     O_3   0.432573 0.062059 0.271599 -0.595912
H5    H     H_    0.438793 0.071151 0.290024 0.400552
O70   O     O_3   0.085118 0.547731 0.274504 -0.612563
H6    H     H_    0.091352 0.545035 0.293917 0.408215
O71   O     O_3   0.550573 0.916239 0.275404 -0.600708
H7    H     H_    0.549092 0.911273 0.295159 0.407832
O72   O     O_3   0.957309 0.413346 0.276720 -0.584566
H8    H     H_    0.941989 0.420334 0.291653 0.391979
O73   O     O_3   0.952347 0.415038 0.225653 -0.612321
H9    H     H_    0.955102 0.408723 0.206299 0.408246
O74   O     O_3   0.557181 0.921562 0.225743 -0.602214
H10   H     H_    0.563300 0.922637 0.206202 0.409035
O75   O     O_3   0.086714 0.542812 0.223434 -0.584382
H11   H     H_    0.079637 0.558223 0.208498 0.391592
O76   O     O_3   0.413587 0.040316 0.226038 -0.589730
H12   H     H_    0.406222 0.032389 0.207406 0.391610
O77   O     O_3   0.909968 0.540425 0.774082 -0.607510
H13   H     H_    0.910179 0.546748 0.793617 0.406525
O78   O     O_3   0.548394 0.082056 0.774354 -0.617170
H14   H     H_    0.557026 0.080682 0.793293 0.409538
O79   O     O_3   0.045005 0.412869 0.775380 -0.609683
H15   H     H_    0.048203 0.411554 0.795370 0.407914
O80   O     O_3   0.424731 0.942991 0.776333 -0.586509
H16   H     H_    0.412697 0.951829 0.792570 0.392087
F1    F     F_    0.537790 0.050399 0.865502 -0.493482
F2    F     F_    0.953470 0.541668 0.864557 -0.492036
F3    F     F_    0.444784 0.967263 0.866291 -0.497260
F4    F     F_    0.021517 0.437269 0.867586 -0.490401
F5    F     F_    0.537926 0.947788 0.133888 -0.489505
F6    F     F_    0.972044 0.440972 0.133327 -0.492845
F7    F     F_    0.447675 0.035102 0.134518 -0.489421
F8    F     F_    0.050495 0.537903 0.135384 -0.498218
F9    F     F_    0.059051 0.528095 0.366837 -0.492872
F10   F     F_    0.454329 0.042399 0.364460 -0.487525
F11   F     F_    0.962201 0.449569 0.364661 -0.497909
F12   F     F_    0.537085 0.947683 0.366368 -0.491086
F13   F     F_    0.039613 0.450850 0.635241 -0.494834
F14   F     F_    0.451828 0.958910 0.634263 -0.493327
F15   F     F_    0.937476 0.521596 0.632353 -0.490500
F16   F     F_    0.534871 0.052236 0.634472 -0.498116
F17   F     F_    0.540690 0.042474 0.916170 -0.537050
F18   F     F_    0.961894 0.544697 0.915363 -0.538790
F19   F     F_    0.456717 0.959727 0.916603 -0.537681
F20   F     F_    0.034252 0.451589 0.916637 -0.541093
F21   F     F_    0.542809 0.959388 0.083525 -0.537828
F22   F     F_    0.961599 0.455206 0.083573 -0.539554
F23   F     F_    0.454911 0.037937 0.083242 -0.537843
F24   F     F_    0.041886 0.541528 0.084128 -0.538731
F25   F     F_    0.044741 0.538590 0.416480 -0.539741
F26   F     F_    0.461529 0.044171 0.415764 -0.538438
F27   F     F_    0.958391 0.458335 0.415833 -0.538405
F28   F     F_    0.537484 0.954117 0.417526 -0.538915
F29   F     F_    0.043252 0.460044 0.584514 -0.538031
F30   F     F_    0.458140 0.958360 0.583460 -0.537345
F31   F     F_    0.953076 0.536044 0.583637 -0.540285
F32   F     F_    0.540861 0.042344 0.583833 -0.537352
O81   O     O_3   0.900149 0.043278 0.033310 -0.654787
H17   H     H_    0.885620 0.058502 0.043939 0.411706
O82   O     O_3   0.956101 0.900065 0.032898 -0.654027
H18   H     H_    0.941037 0.885552 0.043760 0.412651
O83   O     O_3   0.100074 0.956843 0.033617 -0.654942
H19   H     H_    0.114675 0.941692 0.044385 0.411693
O84   O     O_3   0.043886 0.099827 0.033028 -0.654047
H20   H     H_    0.058934 0.114282 0.043962 0.412916
O85   O     O_3   0.899950 0.956689 0.966588 -0.654005
H21   H     H_    0.885442 0.942789 0.954707 0.412988
O86   O     O_3   0.956671 0.100082 0.966496 -0.654422
H22   H     H_    0.941086 0.114709 0.956188 0.411349
O87   O     O_3   0.099800 0.043676 0.966817 -0.654062
H23   H     H_    0.114232 0.057869 0.955121 0.412984
O88   O     O_3   0.043507 0.900059 0.966991 -0.654379
H24   H     H_    0.059258 0.885463 0.956950 0.411129
O89   O     O_3   0.400126 0.543284 0.533292 -0.654822
H25   H     H_    0.385584 0.558614 0.543806 0.411437
O90   O     O_3   0.456126 0.400062 0.532929 -0.653961
H26   H     H_    0.441005 0.385549 0.543737 0.412639
O91   O     O_3   0.600064 0.456825 0.533609 -0.654801
H27   H     H_    0.614661 0.441681 0.544387 0.411886
O92   O     O_3   0.543883 0.599819 0.533027 -0.654155
H28   H     H_    0.558908 0.614272 0.543984 0.412839
O93   O     O_3   0.399959 0.456640 0.466616 -0.653986
H29   H     H_    0.385448 0.442571 0.454874 0.413075
O94   O     O_3   0.456664 0.600072 0.466500 -0.654634
H30   H     H_    0.441092 0.614697 0.456177 0.411232
O95   O     O_3   0.599803 0.543677 0.466826 -0.654215
H31   H     H_    0.614235 0.557851 0.455114 0.412848
O96   O     O_3   0.543462 0.400041 0.466955 -0.654238
H32   H     H_    0.559244 0.385437 0.456954 0.411058
F33   F     F_    0.833909 0.040966 0.037472 -0.538369
F34   F     F_    0.955411 0.833550 0.034579 -0.538584
F35   F     F_    0.166407 0.958703 0.037420 -0.538701
F36   F     F_    0.044507 0.166306 0.034721 -0.537942
F37   F     F_    0.833478 0.955347 0.965529 -0.538470
F38   F     F_    0.959449 0.166305 0.961952 -0.537453
F39   F     F_    0.166272 0.044481 0.965300 -0.538505
F40   F     F_    0.040631 0.833895 0.962382 -0.537860
F41   F     F_    0.333909 0.540794 0.537582 -0.538479
F42   F     F_    0.455500 0.333546 0.534667 -0.538368
F43   F     F_    0.666401 0.458648 0.537392 -0.538292
F44   F     F_    0.544498 0.666294 0.534729 -0.538282
F45   F     F_    0.333478 0.455394 0.465462 -0.538226
F46   F     F_    0.459411 0.666299 0.461981 -0.537973
F47   F     F_    0.666273 0.544488 0.465320 -0.538768
F48   F     F_    0.540474 0.333892 0.462274 -0.537677
F49   F     F_    0.779365 0.955528 0.965949 -0.457816
F50   F     F_    0.040488 0.779737 0.962575 -0.458195
F51   F     F_    0.220386 0.044204 0.965651 -0.457725
F52   F     F_    0.959576 0.220478 0.962166 -0.457439
F53   F     F_    0.779758 0.040830 0.037270 -0.458158
F54   F     F_    0.044217 0.220431 0.034379 -0.457257
F55   F     F_    0.220552 0.958753 0.037154 -0.458160
F56   F     F_    0.955662 0.779417 0.034194 -0.458142
F57   F     F_    0.279360 0.455576 0.465876 -0.457363
F58   F     F_    0.540326 0.279733 0.462464 -0.458066
F59   F     F_    0.720384 0.544207 0.465674 -0.458080
F60   F     F_    0.459527 0.720469 0.462207 -0.458249
F61   F     F_    0.279757 0.540643 0.537387 -0.458470
F62   F     F_    0.544202 0.720415 0.534392 -0.457777
F63   F     F_    0.720547 0.458693 0.537127 -0.457443
F64   F     F_    0.455748 0.279410 0.534283 -0.457834
F65   F     F_    0.720256 0.956326 0.965325 -0.457512
F66   F     F_    0.041218 0.720544 0.963103 -0.457575
F67   F     F_    0.279482 0.043359 0.964981 -0.457253
F68   F     F_    0.958898 0.279696 0.962668 -0.456329
F69   F     F_    0.720565 0.041141 0.037052 -0.457756
F70   F     F_    0.043823 0.279554 0.034662 -0.456573
F71   F     F_    0.279743 0.958387 0.036881 -0.457614
F72   F     F_    0.956443 0.720287 0.034789 -0.457956
F73   F     F_    0.220241 0.456311 0.465309 -0.456615
F74   F     F_    0.541078 0.220537 0.463005 -0.457447
F75   F     F_    0.779474 0.543350 0.464995 -0.457871
F76   F     F_    0.458911 0.779684 0.462662 -0.457695
F77   F     F_    0.220563 0.541019 0.537121 -0.458096
F78   F     F_    0.543733 0.779530 0.534743 -0.457434
F79   F     F_    0.779740 0.458332 0.536859 -0.456302
F80   F     F_    0.456518 0.220275 0.534864 -0.457421
F81   F     F_    0.666418 0.041087 0.037462 -0.537607
F82   F     F_    0.956299 0.666164 0.035143 -0.537694
F83   F     F_    0.333896 0.958393 0.037256 -0.537437
F84   F     F_    0.044047 0.333679 0.035015 -0.535474
F85   F     F_    0.666141 0.956051 0.965036 -0.537285
F86   F     F_    0.958976 0.333864 0.962242 -0.535197
F87   F     F_    0.333591 0.043621 0.964675 -0.536867
F88   F     F_    0.041298 0.666390 0.962760 -0.537347
F89   F     F_    0.166416 0.540980 0.537521 -0.537930
F90   F     F_    0.456384 0.166149 0.535226 -0.536871
F91   F     F_    0.833893 0.458348 0.537242 -0.535304
F92   F     F_    0.543967 0.833649 0.535083 -0.536976
F93   F     F_    0.166121 0.456063 0.465000 -0.535794
F94   F     F_    0.458979 0.833848 0.462252 -0.537322
F95   F     F_    0.833580 0.543623 0.464700 -0.537834
F96   F     F_    0.541162 0.166383 0.462664 -0.537293
O97   O     O_3   0.599952 0.039921 0.036164 -0.649734
H33   H     H_    0.614439 0.054367 0.047615 0.413388
O98   O     O_3   0.960321 0.599805 0.036187 -0.651161
H34   H     H_    0.947472 0.614308 0.048794 0.412670
O99   O     O_3   0.400375 0.960148 0.036379 -0.651129
H35   H     H_    0.385972 0.946082 0.048199 0.412988
O100  O     O_3   0.039453 0.399979 0.036519 -0.649625
H36   H     H_    0.051934 0.385379 0.049417 0.413691
O101  O     O_3   0.599781 0.960017 0.963999 -0.650998
H37   H     H_    0.614264 0.946815 0.951632 0.413102
O102  O     O_3   0.960686 0.400374 0.963194 -0.647308
H38   H     H_    0.947147 0.385953 0.950958 0.414538
O103  O     O_3   0.399957 0.039868 0.963808 -0.650732
H39   H     H_    0.385379 0.053033 0.951364 0.413267
O104  O     O_3   0.039679 0.599900 0.963694 -0.648543
H40   H     H_    0.053586 0.614395 0.951823 0.413536
O105  O     O_3   0.099945 0.539764 0.536265 -0.650406
H41   H     H_    0.114435 0.554086 0.547818 0.413103
O106  O     O_3   0.460505 0.099795 0.536327 -0.650911
H42   H     H_    0.447795 0.114299 0.549028 0.412967
O107  O     O_3   0.900375 0.460097 0.536357 -0.646955
H43   H     H_    0.885972 0.446007 0.548160 0.414669
O108  O     O_3   0.539742 0.899984 0.536311 -0.651254
H44   H     H_    0.552617 0.885403 0.548954 0.413054
O109  O     O_3   0.099771 0.460226 0.463829 -0.649054
H45   H     H_    0.114261 0.447273 0.451288 0.413853
O110  O     O_3   0.460382 0.900343 0.463418 -0.649972
H46   H     H_    0.446405 0.885926 0.451521 0.413126
O111  O     O_3   0.899949 0.539970 0.463899 -0.651455
H47   H     H_    0.885374 0.553260 0.451543 0.412865
O112  O     O_3   0.539506 0.099888 0.463574 -0.649690
H48   H     H_    0.553298 0.114385 0.451612 0.413488

loop_
_geom_bond_atom_site_label_1
_geom_bond_atom_site_label_2
_ccdc_geom_bond_type
Cu8   O16   S    
C139  F91   S    
O84   H20   S    
C159  O111  S    
O65   H1    S    
C37   C69   A    
C130  C146  A    
C128  C272  S    
O83   H19   S    
C76   F52   S    
O104  H40   S    
C143  C175  A    
C234  C250  A    
C8    O12   A    
C223  C226  A    
C107  C171  S    
O89   H25   S    
Cu3   O21   S    
C18   C65   S    
C191  N7    A    
C131  C171  A    
C183  C197  A    
C105  C169  S    
C238  C254  A    
C80   C114  A    
C195  C209  A    
C225  O73   S    
C109  C173  S    
C95   F71   S    
Cu3   O19   S    
C74   C114  A    
C81   C117  A    
Cu9   O51   S    
C255  F23   S    
C86   F62   S    
Cu6   O30   S    
C8    C168  S    
C102  C112  A    
C262  F30   S    
C155  C167  A    
C138  C174  A    
C160  C166  A    
C144  C160  A    
C48   F40   S    
C22   C69   S    
C129  C145  A    
C254  C268  A    
C33   C69   A    
C36   O92   S    
C196  C210  A    
C138  C154  A    
C12   C238  A    
C256  C268  A    
C35   C71   A    
Cu8   O28   S    
Cu5   O31   S    
C231  O79   S    
C42   C58   A    
Cu11  O60   S    
C88   F64   S    
C4    O6    A    
C142  C158  A    
C77   C113  A    
C203  C227  A    
C136  C152  A    
C126  C270  S    
C16   C248  A    
C252  F20   S    
C75   C91   A    
C21   C72   S    
C9    C233  A    
C84   C100  A    
C91   C107  A    
C54   F46   S    
C185  N5    A    
C53   F45   S    
C38   O94   S    
C121  C265  S    
C192  O48   S    
Cu10  O55   S    
C138  F90   S    
C28   C44   A    
C253  C267  A    
C128  O32   A    
C29   C45   A    
C40   O96   S    
C148  C164  A    
C201  C225  A    
C33   O89   S    
C137  C173  A    
C157  O109  S    
C197  C211  A    
Cu6   O26   S    
C140  C176  A    
C45   C57   A    
C130  F82   S    
C137  C153  A    
C177  O33   S    
C202  C214  A    
C143  C159  A    
C3    O7    A    
C131  F83   S    
C140  C156  A    
C14   C244  A    
C148  O100  S    
C141  C157  A    
C184  C198  A    
C35   C51   A    
O77   H13   S    
C56   C62   A    
C75   C115  A    
C82   C118  A    
C219  C230  A    
O80   H16   S    
Cu1   O17   S    
C153  O105  S    
C179  C193  A    
Cu12  O62   S    
C177  C195  A    
C46   C60   A    
C203  C213  A    
C103  F79   S    
O74   H10   S    
C140  F92   S    
C101  F77   S    
C64   C120  S    
C99   F75   S    
C74   C90   A    
Cu9   Cu10  S    
C182  O38   S    
O69   H5    S    
C104  C110  A    
C177  N1    A    
C260  F28   S    
C145  C161  A    
C222  C227  A    
C78   C94   A    
C188  C202  A    
C159  C167  A    
O93   H29   S    
Cu8   O32   S    
C73   C89   A    
C12   C240  A    
C212  C213  A    
C237  F5    S    
C144  C174  A    
O66   H2    S    
C39   C71   A    
C188  O44   S    
Cu11  O58   S    
C235  F3    S    
C132  C172  A    
C16   N1    S    
C5    O9    A    
C247  C263  A    
Cu3   O5    S    
C248  C264  A    
C7    O11   A    
C155  O107  S    
O81   H17   S    
C19   O53   A    
C79   C115  A    
C9    C235  A    
C28   O84   S    
C205  C229  A    
C244  C260  A    
C35   O91   S    
C245  C261  A    
C2    C162  S    
C195  C219  A    
C178  O34   S    
C47   F39   S    
C189  O45   S    
O85   H21   S    
Cu10  O53   S    
C193  C217  A    
C151  O103  S    
C40   C70   A    
C220  C229  A    
C22   O62   A    
C28   C68   A    
C253  F21   S    
C87   F63   S    
Cu4   O4    S    
C251  F19   S    
Cu7   O13   S    
C156  C168  A    
C83   C119  A    
C210  C215  A    
C204  C214  A    
C30   O86   S    
C246  F14   S    
C63   C119  S    
C19   C66   S    
C249  C265  A    
C52   F44   S    
C53   C61   A    
C92   C108  A    
C11   N6    S    
O86   H22   S    
C55   C63   A    
C131  C147  A    
C98   F74   S    
C127  O31   A    
C198  C212  A    
C251  C265  A    
C36   C52   A    
C43   C59   A    
C37   C53   A    
Cu12  O64   S    
C263  C271  A    
C7    O15   A    
C134  C172  A    
O101  H37   S    
O98   H34   S    
C106  C170  S    
C23   C70   S    
C236  C252  A    
C20   O52   A    
C88   C104  A    
C204  C228  A    
C158  C168  A    
C110  C174  S    
C38   C72   A    
C240  C256  A    
C181  N3    A    
C26   C66   A    
C182  C200  A    
C46   F38   S    
C45   F37   S    
C157  C165  A    
C141  F93   S    
C57   C113  S    
C263  F31   S    
C179  N1    A    
C261  F29   S    
C229  O77   S    
C87   C119  A    
O109  H45   S    
C27   C43   A    
C194  C210  A    
C97   C109  A    
O110  H46   S    
C139  C155  A    
C147  O99   S    
C99   C111  A    
O103  H39   S    
C190  O46   S    
Cu1   O1    S    
C242  C258  A    
C44   C60   A    
Cu3   O3    S    
Cu1   O23   S    
C17   O49   A    
C252  C266  A    
C154  O106  S    
C112  C176  S    
C136  C170  A    
C56   F48   S    
C19   O51   A    
C24   O60   A    
C123  O23   A    
C29   C65   A    
C60   C116  S    
C257  C269  A    
C92   F68   S    
C88   C118  A    
C181  C199  A    
C26   C42   A    
C190  C208  A    
C7    C167  S    
C153  C165  A    
C30   C46   A    
C78   C116  A    
C249  F17   S    
C246  C262  A    
O100  H36   S    
C32   O88   S    
C150  C164  A    
C27   O83   S    
C10   C236  A    
C31   O87   S    
C1    O1    A    
C257  F25   S    
C239  F7    S    
C147  C163  A    
C54   C64   A    
C108  C172  S    
C21   O63   A    
Cu9   O50   S    
Cu1   Cu3   S    
C236  F4    S    
Cu2   Cu4   S    
C127  O29   A    
C260  C270  A    
C152  C162  A    
C261  C271  A    
C27   C67   A    
Cu2   O18   S    
C262  C272  A    
O96   H32   S    
C42   F34   S    
C211  C214  A    
C143  F95   S    
C121  O17   A    
O95   H31   S    
C33   C49   A    
C89   C105  A    
Cu11  Cu12  S    
C58   C114  S    
C94   F70   S    
C86   C120  A    
C242  F10   S    
C104  F80   S    
C78   F54   S    
C36   C72   A    
C232  O80   S    
C86   C102  A    
C6    C166  S    
C98   C110  A    
C82   C98   A    
Cu11  O59   S    
O112  H48   S    
Cu4   O20   S    
C224  C225  A    
C209  C216  A    
C96   F72   S    
C233  C249  A    
O76   H12   S    
C202  C226  A    
C178  N2    A    
C146  C162  A    
C122  C266  S    
C200  C224  A    
C237  C253  A    
C23   O61   A    
C217  C232  A    
C145  O97   S    
O97   H33   S    
C243  F11   S    
C101  C109  A    
O72   H8    S    
C160  O112  S    
C178  C196  A    
C238  F6    S    
C73   C113  A    
C103  C111  A    
C191  C205  A    
C59   C115  S    
C133  C169  A    
C85   C101  A    
C125  O25   A    
C6    O10   A    
C24   O64   A    
C139  C175  A    
Cu2   O22   S    
C39   C55   A    
C29   O85   S    
C40   C56   A    
C123  O21   A    
C156  O108  S    
O68   H4    S    
C135  C171  A    
C34   C70   A    
C259  C269  A    
C3    C163  S    
C81   F57   S    
C234  F2    S    
C183  N3    A    
C1    C161  S    
C264  C272  A    
C31   C47   A    
O105  H41   S    
C32   C48   A    
C77   F53   S    
C254  F22   S    
C75   F51   S    
Cu4   O8    S    
C248  F16   S    
Cu5   O9    S    
C144  F96   S    
C10   C234  A    
Cu7   O11   S    
C61   C117  S    
O94   H30   S    
C73   F49   S    
C146  O98   S    
C190  N8    A    
C250  C266  A    
C259  F27   S    
C52   C64   A    
C191  O47   S    
C133  C149  A    
C135  F87   S    
C142  C176  A    
C89   F65   S    
C55   F47   S    
Cu9   O52   S    
C137  F89   S    
C83   C99   A    
C233  F1    S    
O90   H26   S    
Cu1   O7    S    
C224  O72   S    
C79   C95   A    
C38   C54   A    
C84   C120  A    
C122  O20   A    
C51   C63   A    
C243  C259  A    
C189  C207  A    
C124  O22   A    
C20   O56   A    
C201  C213  A    
C95   C107  A    
C241  F9    S    
C100  C112  A    
C51   F43   S    
Cu11  O57   S    
C149  C161  A    
C256  F24   S    
C25   C41   A    
C185  O41   S    
C219  O67   S    
Cu5   O15   S    
C32   C66   A    
C230  O78   S    
C142  F94   S    
C187  O43   S    
C240  F8    S    
C17   C68   S    
O79   H15   S    
C192  C206  A    
C90   F66   S    
C2    O8    A    
C258  F26   S    
C9    N8    S    
C48   C58   A    
C10   N7    S    
C102  F78   S    
Cu10  O54   S    
C187  C201  A    
C197  C221  A    
C83   F59   S    
C185  C203  A    
Cu2   O2    S    
Cu10  O56   S    
C41   C57   A    
C125  O27   A    
C74   F50   S    
C126  O28   A    
C49   C61   A    
C5    O13   A    
C130  C170  A    
C135  C151  A    
C37   O93   S    
C250  F18   S    
C77   C93   A    
C124  C268  S    
C180  N2    A    
C158  O110  S    
C258  C270  A    
C26   O82   S    
C62   C118  S    
C31   C67   A    
C90   C106  A    
C182  N4    A    
C123  C267  S    
C205  C215  A    
C186  O42   S    
C154  C166  A    
C181  O37   S    
Cu12  O61   S    
C126  O26   A    
Cu6   Cu8   S    
C206  C230  A    
C2    O2    A    
C20   C67   S    
C79   F55   S    
O70   H6    S    
C235  C251  A    
C228  O76   S    
C34   O90   S    
C194  C218  A    
C221  C228  A    
C94   C108  A    
C200  C212  A    
C255  C267  A    
C223  O71   S    
C111  C175  S    
C50   F42   S    
C129  C169  A    
C198  C222  A    
C44   F36   S    
Cu2   O6    S    
C218  O66   S    
C85   F61   S    
C134  F86   S    
C11   C239  A    
O102  H38   S    
C134  C150  A    
C133  F85   S    
C122  O18   A    
C15   N2    S    
C208  C216  A    
C124  O24   A    
C93   C105  A    
C13   C241  A    
C15   C245  A    
C152  O104  S    
C17   O55   A    
C150  O102  S    
O106  H42   S    
C4    C164  S    
C25   O81   S    
C82   F58   S    
C5    C165  S    
C80   C96   A    
C97   F73   S    
O99   H35   S    
C1    O5    A    
Cu5   O25   S    
C121  O19   A    
Cu7   O29   S    
Cu6   O14   S    
Cu7   O27   S    
C183  O39   S    
C226  O74   S    
C184  N4    A    
C14   C242  A    
C141  C173  A    
C21   O57   A    
C207  C215  A    
C227  O75   S    
C196  C220  A    
C23   O59   A    
C100  F76   S    
C34   C50   A    
C47   C59   A    
C221  O69   S    
Cu8   O12   S    
C222  O70   S    
C30   C68   A    
C8    O14   A    
C25   C65   A    
C264  F32   S    
O82   H18   S    
C149  O101  S    
C136  F88   S    
C129  F81   S    
C6    O16   A    
C12   N5    S    
C241  C257  A    
C125  C269  S    
C85   C117  A    
C187  N5    A    
C13   N4    S    
C193  C209  A    
C189  N7    A    
C186  N6    A    
C14   N3    S    
C192  N8    A    
O107  H43   S    
Cu9   O49   S    
O111  H47   S    
C186  C204  A    
C39   O95   S    
O75   H11   S    
C18   O50   A    
C179  O35   S    
C76   C92   A    
C184  O40   S    
Cu12  O63   S    
C41   F33   S    
Cu6   O10   S    
C208  C232  A    
C151  C163  A    
Cu5   Cu7   S    
C50   C62   A    
C87   C103  A    
Cu4   O24   S    
O108  H44   S    
C180  C194  A    
O71   H7    S    
C206  C216  A    
C96   C106  A    
C132  C148  A    
C4    O4    A    
C15   C247  A    
C188  N6    A    
C80   F56   S    
C180  O36   S    
C16   C246  A    
C11   C237  A    
O67   H3    S    
C220  O68   S    
C217  O65   S    
O92   H28   S    
O73   H9    S    
C239  C255  A    
C22   O58   A    
C207  C231  A    
O91   H27   S    
C13   C243  A    
C81   C97   A    
C49   F41   S    
C76   C116  A    
C128  O30   A    
C199  C211  A    
C218  C231  A    
C247  F15   S    
O88   H24   S    
C18   O54   A    
C199  C223  A    
C245  F13   S    
O87   H23   S    
C84   F60   S    
C132  F84   S    
C127  C271  S    
C93   F69   S    
C244  F12   S    
C43   F35   S    
O78   H14   S    
C24   C71   S    
C91   F67   S    
C3    O3    A    
