data_mof_unit_pretest_603.cif
_audit_creation_date              2012-12-11T15:52:22-0500
_audit_creation_method            fapswitch 2.2
_symmetry_space_group_name_H-M    P1
_symmetry_Int_Tables_number       1
_space_group_crystal_system       triclinic
_cell_length_a                    10.945864
_cell_length_b                    10.954128
_cell_length_c                    18.798421
_cell_angle_alpha                 89.992146
_cell_angle_beta                  90.123505
_cell_angle_gamma                 119.823736
_cell_volume                      1955.45235106

loop_
_atom_site_label
_atom_site_type_symbol
_atom_type_description
_atom_site_fract_x
_atom_site_fract_y
_atom_site_fract_z
_atom_type_partial_charge
C1    C     C_R   0.522208 0.452861 0.144948 0.536708
C2    C     C_3   0.955102 0.709797 0.460138 -0.269627
C3    C     C_3   0.755039 0.046024 0.460842 -0.270211
C4    C     C_3   0.291804 0.245422 0.460334 -0.269510
C5    C     C_R   0.517254 0.458441 0.352941 0.547994
C6    C     C_R   0.541583 0.058650 0.352901 0.554020
C7    C     C_R   0.941450 0.482763 0.352913 0.548228
C8    C     C_R   0.453849 0.522184 0.644038 0.545172
C9    C     C_R   0.067997 0.545981 0.644046 0.544710
C10   C     C_R   0.477727 0.931924 0.644025 0.545074
C11   C     C_R   0.507862 0.017729 0.919047 0.011063
C12   C     C_R   0.578616 0.125413 0.139816 0.557631
C13   C     C_R   0.010683 0.504875 0.924639 0.011829
C14   C     C_R   0.505815 0.498984 0.921349 0.014004
C15   C     C_R   0.977549 0.500555 0.072745 0.018684
C16   C     C_R   0.554457 0.094884 0.063780 0.015923
C17   C     C_R   0.512613 0.472213 0.069305 0.015744
C18   C     C_R   0.395787 0.991139 0.964098 0.002898
C19   C     C_R   0.079659 0.456993 0.970231 0.020645
C20   C     C_R   0.593973 0.615152 0.964154 0.006113
C21   C     C_R   0.065176 0.456222 0.043085 -0.010673
C22   C     C_R   0.418710 0.028202 0.035102 0.005844
C23   C     C_R   0.935432 0.480075 0.146477 0.538967
C24   C     C_R   0.599346 0.601296 0.037043 -0.001458
C25   C     C_R   0.668453 0.142962 0.016564 -0.158565
C26   C     C_R   0.917976 0.560859 0.027865 -0.150649
C27   C     C_R   0.439939 0.352157 0.025780 -0.160896
C28   C     C_R   0.934307 0.562909 0.954569 -0.168789
C29   C     C_R   0.645767 0.103514 0.944603 -0.154162
C30   C     C_R   0.439509 0.364972 0.952121 -0.167191
C31   C     C_3   0.264406 0.856175 0.980137 -0.251729
C32   C     C_3   0.081589 0.321552 0.971680 -0.263822
C33   C     C_3   0.601730 0.754840 0.971674 -0.239209
C34   C     C_R   0.458380 0.520146 0.852711 0.542423
C35   C     C_3   0.073687 0.325514 0.052395 -0.284304
C36   C     C_3   0.289877 0.897177 0.058127 -0.261480
C37   C     C_3   0.608873 0.739644 0.051443 -0.276541
C38   C     C_R   0.485172 0.960583 0.568578 0.016348
C39   C     C_R   0.039262 0.524720 0.568628 0.016510
C40   C     C_R   0.475072 0.514618 0.568642 0.016373
C41   C     C_R   0.015064 0.513605 0.420440 0.016039
C42   C     C_R   0.499151 0.985272 0.420376 0.015412
C43   C     C_R   0.486304 0.500954 0.420467 0.015947
C44   C     C_R   0.589759 0.952363 0.530622 0.043372
C45   C     C_R   0.061803 0.541646 0.852621 0.540533
C46   C     C_R   0.048118 0.637493 0.530432 0.043216
C47   C     C_R   0.362683 0.410506 0.530398 0.043053
C48   C     C_R   0.037418 0.633514 0.458014 0.030621
C49   C     C_R   0.596911 0.963329 0.458229 0.029845
C50   C     C_R   0.366787 0.403474 0.458004 0.030537
C51   C     C_R   0.377771 0.965537 0.455959 -0.166244
C52   C     C_R   0.034283 0.411829 0.456371 -0.166040
C53   C     C_R   0.587487 0.621958 0.456370 -0.165983
C54   C     C_R   0.044760 0.416523 0.530821 -0.160622
C55   C     C_R   0.371522 0.954786 0.530408 -0.160970
C56   C     C_R   0.480999 0.939815 0.852464 0.534878
C57   C     C_R   0.582730 0.628065 0.530804 -0.160601
C58   C     C_3   0.745328 0.032650 0.540792 -0.280493
C59   C     C_3   0.968076 0.713424 0.540115 -0.280732
C60   C     C_3   0.287887 0.255053 0.540272 -0.280557
Cr1   Cr    Cr6+3 0.769160 0.541570 0.250690 1.004274
Cr2   Cr    Cr6+3 0.458430 0.227590 0.250690 1.003374
Cr3   Cr    Cr6+3 0.772410 0.230840 0.250690 1.000293
Cr4   Cr    Cr6+3 0.541570 0.769160 0.749310 1.006970
Cr5   Cr    Cr6+3 0.227590 0.458430 0.749310 1.007452
Cr6   Cr    Cr6+3 0.230840 0.772410 0.749310 1.010132
H1    H     H_    0.774427 0.205195 0.035955 0.127930
H2    H     H_    0.978036 0.235895 0.075526 0.145682
H3    H     H_    0.209338 0.919216 0.081113 0.143838
H4    H     H_    0.712265 0.817036 0.074781 0.145460
H5    H     H_    0.294523 0.970701 0.427401 0.121574
H6    H     H_    0.028887 0.323272 0.428058 0.121398
H7    H     H_    0.675577 0.705086 0.428069 0.121535
H8    H     H_    0.052019 0.333971 0.558612 0.130793
H9    H     H_    0.281415 0.947169 0.557932 0.130623
H10   H     H_    0.664837 0.718010 0.558567 0.131249
H11   H     H_    0.787960 0.966963 0.562350 0.134480
H12   H     H_    0.853277 0.601302 0.049093 0.152571
H13   H     H_    0.033821 0.821321 0.561709 0.134373
H14   H     H_    0.179730 0.212676 0.561563 0.134388
H15   H     H_    0.844788 0.642933 0.442359 0.168911
H16   H     H_    0.797433 0.156247 0.443300 0.168271
H17   H     H_    0.359728 0.202762 0.442915 0.168741
H18   H     H_    0.781628 0.134595 0.568646 0.135848
H19   H     H_    0.865882 0.648474 0.567692 0.135907
H20   H     H_    0.353510 0.218488 0.568226 0.136127
H21   H     H_    0.012720 0.815724 0.435256 0.126478
H22   H     H_    0.804183 0.988862 0.435974 0.126795
H23   H     H_    0.378797 0.248584 0.048756 0.146628
H24   H     H_    0.185804 0.196601 0.435190 0.126637
H25   H     H_    0.169288 0.854663 0.958228 0.153123
H26   H     H_    0.986164 0.233297 0.946980 0.125239
H27   H     H_    0.700412 0.842080 0.949077 0.148233
H28   H     H_    0.173446 0.347548 0.078969 0.149893
H29   H     H_    0.314314 0.827003 0.090537 0.145108
H30   H     H_    0.515327 0.729348 0.080049 0.139434
H31   H     H_    0.888620 0.610941 0.921465 0.133950
H32   H     H_    0.735422 0.131486 0.910484 0.126306
H33   H     H_    0.374586 0.272017 0.920485 0.134580
H34   H     H_    0.274100 0.762287 0.967426 0.141764
H35   H     H_    0.182475 0.334309 0.952218 0.166190
H36   H     H_    0.503142 0.751883 0.954443 0.148766
O1    O     O_R   0.911480 0.572650 0.170990 -0.524558
O2    O     O_R   0.528970 0.640340 0.824320 -0.500903
O3    O     O_R   0.111370 0.471030 0.824320 -0.500222
O4    O     O_R   0.359660 0.888630 0.824320 -0.497450
O5    O     O_R   0.909980 0.572450 0.331530 -0.521842
O6    O     O_R   0.427550 0.337530 0.331530 -0.522346
O7    O     O_R   0.662470 0.090020 0.331530 -0.520341
O8    O     O_R   0.572450 0.909980 0.668470 -0.519034
O9    O     O_R   0.337530 0.427550 0.668470 -0.518777
O10   O     O_R   0.090020 0.662470 0.668470 -0.519196
O11   O     O_R   0.638950 0.528780 0.324500 -0.506432
O12   O     O_R   0.427350 0.338830 0.170990 -0.534544
O13   O     O_R   0.471220 0.110170 0.324500 -0.504807
O14   O     O_R   0.889830 0.361050 0.324500 -0.507971
O15   O     O_R   0.528780 0.638950 0.675500 -0.507623
O16   O     O_R   0.110170 0.471220 0.675500 -0.507911
O17   O     O_R   0.361050 0.889830 0.675500 -0.507510
O18   O     O_3   0.666667 0.333333 0.250560 -0.264023
O19   O     O_3   0.333333 0.666667 0.749440 -0.247491
O20   O     O_R   0.661170 0.088520 0.170990 -0.519143
O21   O     O_R   0.572650 0.911480 0.829010 -0.529244
O22   O     O_R   0.338830 0.427350 0.829010 -0.527796
O23   O     O_R   0.088520 0.661170 0.829010 -0.524527
O24   O     O_R   0.640340 0.528970 0.175680 -0.500563
O25   O     O_R   0.471030 0.111370 0.175680 -0.501813
O26   O     O_R   0.888630 0.359660 0.175680 -0.520547

loop_
_geom_bond_atom_site_label_1
_geom_bond_atom_site_label_2
_ccdc_geom_bond_type
C44   C49   A    
C28   H31   S    
C40   C47   A    
C11   C18   A    
C46   C59   S    
C44   C58   S    
C25   H1    S    
C3    C49   S    
C12   O25   A    
C26   H12   S    
C29   H32   S    
C57   H10   S    
Cr1   O1    S    
Cr6   O4    S    
Cr2   O12   S    
Cr2   O25   S    
C39   C54   A    
Cr2   O6    S    
Cr4   O19   S    
C9    C39   S    
Cr5   O22   S    
Cr5   O9    S    
C10   O17   A    
C58   H11   S    
C47   C60   S    
C54   H8    S    
C43   C53   A    
C23   O1    A    
C38   C55   A    
C20   C24   A    
C45   O3    A    
C32   H35   S    
C16   C22   A    
Cr5   O16   S    
C13   C28   A    
C10   O8    A    
Cr1   O24   S    
Cr5   O19   S    
C56   O21   A    
C41   C52   A    
Cr2   O18   S    
Cr3   O26   S    
C42   C51   A    
C55   H9    S    
C9    O10   A    
C15   C23   S    
C5    C43   S    
C37   H4    S    
C27   C30   A    
C9    O16   A    
C51   H5    S    
C14   C30   A    
C12   C16   S    
C19   C32   S    
Cr5   O3    S    
C52   C54   A    
C8    O15   A    
C47   C50   A    
C4    H24   S    
C25   C29   A    
C46   C48   A    
C17   C24   A    
C13   C19   A    
C33   H36   S    
C17   C27   A    
C32   C35   S    
C14   C20   A    
C1    O24   A    
C8    O9    A    
C59   H13   S    
C60   H20   S    
C2    C59   S    
C15   C26   A    
C2    C48   S    
C30   H33   S    
C33   C37   S    
Cr4   O15   S    
C37   H30   S    
C4    C50   S    
C7    O14   A    
Cr3   O7    S    
C59   H19   S    
C38   C44   A    
C19   C21   A    
C52   H6    S    
C58   H18   S    
Cr4   O8    S    
C4    C60   S    
C3    H16   S    
C24   C37   S    
Cr6   O19   S    
C2    H21   S    
C31   H34   S    
C56   O4    A    
C39   C46   A    
C20   C33   S    
C31   H25   S    
Cr6   O17   S    
Cr1   O11   S    
C6    O7    A    
C7    O5    A    
C1    O12   A    
Cr3   O14   S    
Cr3   O20   S    
C36   H3    S    
C35   H28   S    
C16   C25   A    
Cr4   O2    S    
C60   H14   S    
C34   O22   A    
C40   C57   A    
C5    O11   A    
C3    H22   S    
C18   C22   A    
C26   C28   A    
C53   H7    S    
C33   H27   S    
C14   C34   S    
C43   C50   A    
C21   C35   S    
Cr4   O21   S    
C22   C36   S    
C1    C17   S    
Cr6   O23   S    
C10   C38   S    
Cr2   O13   S    
C13   C45   S    
Cr3   O18   S    
C36   H29   S    
C32   H26   S    
C4    H17   S    
C35   H2    S    
C41   C48   A    
C53   C57   A    
C27   H23   S    
C51   C55   A    
C7    C41   S    
Cr1   O5    S    
C34   O2    A    
C6    O13   A    
C42   C49   A    
C3    C58   S    
C15   C21   A    
C12   O20   A    
C11   C29   A    
C6    C42   S    
C45   O23   A    
C31   C36   S    
C2    H15   S    
C18   C31   S    
C8    C40   S    
Cr6   O10   S    
C11   C56   S    
C23   O26   A    
Cr1   O18   S    
C5    O6    A    
