data_mof_unit_pretest_1056.cif
_audit_creation_date              2012-12-10T18:14:21-0500
_audit_creation_method            fapswitch 2.2
_symmetry_space_group_name_H-M    P1
_symmetry_Int_Tables_number       1
_space_group_crystal_system       triclinic
_cell_length_a                    18.316469
_cell_length_b                    18.325995
_cell_length_c                    22.459946
_cell_angle_alpha                 90.000107
_cell_angle_beta                  89.999929
_cell_angle_gamma                 89.864181
_cell_volume                      7539.05317584

loop_
_atom_site_label
_atom_site_type_symbol
_atom_type_description
_atom_site_fract_x
_atom_site_fract_y
_atom_site_fract_z
_atom_type_partial_charge
C1    C     C_1   0.000000 0.500000 0.026651 -0.043509
C2    C     C_R   0.000000 0.500000 0.589897 0.472321
C3    C     C_3   0.929824 0.762875 0.087896 -0.382151
C4    C     C_3   0.758369 0.123936 0.861126 0.015947
C5    C     C_3   0.746969 0.087331 0.921017 -0.382308
C6    C     C_3   0.299754 0.848595 0.116567 0.004263
C7    C     C_3   0.339943 0.857457 0.057805 -0.339058
C8    C     C_3   0.864655 0.717142 0.875297 0.015298
C9    C     C_3   0.871525 0.714733 0.942657 -0.351725
C10   C     C_3   0.102960 0.242937 0.149797 0.001428
C11   C     C_3   0.070185 0.237124 0.087893 -0.382171
C12   C     C_3   0.241605 0.876059 0.861125 0.015902
C13   C     C_R   0.500000 0.000000 0.410113 0.508798
C14   C     C_3   0.253045 0.912709 0.920990 -0.382333
C15   C     C_3   0.700249 0.151404 0.116569 0.004268
C16   C     C_3   0.660066 0.142541 0.057805 -0.339064
C17   C     C_3   0.626685 0.229997 0.626545 0.003565
C18   C     C_3   0.609158 0.214351 0.561570 -0.361915
C19   C     C_3   0.232386 0.871219 0.373634 0.020753
C20   C     C_3   0.258051 0.909083 0.430123 -0.342467
C21   C     C_3   0.211487 0.351234 0.617461 0.012849
C22   C     C_3   0.174906 0.364130 0.557597 -0.338981
C23   C     C_3   0.741766 0.604024 0.353666 0.012156
C24   C     C_R   0.500000 0.000000 0.589890 0.485898
C25   C     C_3   0.748445 0.567975 0.414320 -0.376131
C26   C     C_3   0.373332 0.769994 0.626553 0.003544
C27   C     C_3   0.390873 0.785643 0.561582 -0.361927
C28   C     C_3   0.767612 0.128783 0.373635 0.020751
C29   C     C_3   0.741946 0.090919 0.430123 -0.342467
C30   C     C_3   0.788476 0.648736 0.617483 0.012838
C31   C     C_3   0.825001 0.635838 0.557597 -0.339014
C32   C     C_3   0.258219 0.395966 0.353681 0.012160
C33   C     C_3   0.251514 0.432013 0.414335 -0.376124
C34   C     C_3   0.598948 0.750031 0.350379 0.014900
C35   C     C_R   0.500000 0.000000 0.910110 0.487593
C36   C     C_3   0.569255 0.735793 0.412412 -0.374883
C37   C     C_3   0.362896 0.218954 0.624788 0.010201
C38   C     C_3   0.369150 0.216686 0.557403 -0.351723
C39   C     C_3   0.227719 0.657572 0.383190 0.014286
C40   C     C_3   0.194787 0.636092 0.442794 -0.366271
C41   C     C_3   0.762238 0.363857 0.620292 0.001355
C42   C     C_3   0.813340 0.423485 0.598583 -0.354776
C43   C     C_3   0.401047 0.249967 0.350384 0.014895
C44   C     C_3   0.430744 0.264184 0.412419 -0.374889
C45   C     C_3   0.637107 0.781067 0.624786 0.010162
C46   C     C_R   0.500000 1.000000 0.089897 0.479903
C47   C     C_3   0.630913 0.783203 0.557401 -0.351772
C48   C     C_3   0.772277 0.342434 0.383188 0.014290
C49   C     C_3   0.805206 0.363916 0.442792 -0.366284
C50   C     C_3   0.237783 0.636127 0.620297 0.001362
C51   C     C_3   0.186689 0.576487 0.598596 -0.354792
C52   C     C_R   1.000000 0.500000 0.910114 0.497124
C53   C     C_R   0.000000 0.500000 0.089887 0.483496
C54   C     C_R   0.140178 0.360142 0.250210 0.533102
C55   C     C_R   0.860101 0.640150 0.750020 0.510559
C56   C     C_R   0.360019 0.859763 0.250311 0.535822
C57   C     C_1   1.000000 0.500000 0.973355 -0.046781
C58   C     C_R   0.639930 0.140115 0.749741 0.532025
C59   C     C_R   0.859823 0.639859 0.250209 0.533117
C60   C     C_R   0.139900 0.359851 0.750019 0.510560
C61   C     C_R   0.639981 0.140238 0.250311 0.535819
C62   C     C_R   0.360070 0.859885 0.749741 0.532053
C63   C     C_R   0.140224 0.640003 0.749958 0.560849
C64   C     C_R   0.860086 0.359789 0.249791 0.534605
C65   C     C_R   0.359975 0.140010 0.750079 0.510529
C66   C     C_R   0.640142 0.860116 0.249735 0.538103
C67   C     C_R   0.859776 0.359997 0.749959 0.560842
C68   C     C_1   0.500000 1.000000 0.026660 -0.043939
C69   C     C_R   0.139914 0.640211 0.249791 0.534607
C70   C     C_R   0.640024 0.859990 0.750078 0.510526
C71   C     C_R   0.359858 0.139884 0.249736 0.538104
C72   C     C_R   0.229681 0.716188 0.195452 0.226954
C73   C     C_R   0.776062 0.277305 0.803682 0.189843
C74   C     C_R   0.733768 0.787867 0.197466 0.226538
C75   C     C_R   0.280276 0.226323 0.804624 0.221352
C76   C     C_R   0.770319 0.283811 0.195452 0.226955
C77   C     C_R   0.223934 0.722699 0.803681 0.189826
C78   C     C_R   0.266231 0.212131 0.197467 0.226545
C79   C     C_1   0.500000 0.000000 0.973360 -0.046460
C80   C     C_R   0.719726 0.773680 0.804624 0.221348
C81   C     C_R   0.225962 0.279868 0.804687 0.222045
C82   C     C_R   0.789409 0.735506 0.197798 0.220918
C83   C     C_R   0.725977 0.219751 0.803068 0.199299
C84   C     C_R   0.283211 0.770468 0.195124 0.208286
C85   C     C_R   0.774042 0.720137 0.804689 0.222035
C86   C     C_R   0.210593 0.264494 0.197798 0.220925
C87   C     C_R   0.274020 0.780252 0.803066 0.199299
C88   C     C_R   0.716789 0.229533 0.195125 0.208289
C89   C     C_R   0.719713 0.226405 0.694427 0.213495
C90   C     C_1   0.500000 0.000000 0.526655 -0.041822
C91   C     C_R   0.264897 0.788674 0.302322 0.190859
C92   C     C_R   0.217954 0.271763 0.695887 0.220848
C93   C     C_R   0.763299 0.709293 0.302599 0.222281
C94   C     C_R   0.280295 0.773586 0.694427 0.213488
C95   C     C_R   0.735101 0.211328 0.302322 0.190859
C96   C     C_R   0.782045 0.728234 0.695890 0.220874
C97   C     C_R   0.236697 0.290704 0.302601 0.222275
C98   C     C_R   0.708959 0.763147 0.302654 0.218428
C99   C     C_R   0.273088 0.219173 0.695804 0.225103
C100  C     C_R   0.214197 0.731794 0.302810 0.192891
C101  C     C_1   0.500000 0.000000 0.473355 -0.039493
C102  C     C_R   0.774898 0.279234 0.694859 0.226739
C103  C     C_R   0.291038 0.236851 0.302656 0.218423
C104  C     C_R   0.726917 0.780829 0.695805 0.225118
C105  C     C_R   0.785801 0.268207 0.302810 0.192890
C106  C     C_R   0.225110 0.720757 0.694858 0.226743
C107  C     C_R   0.301864 0.805626 0.249046 -0.047637
C108  C     C_R   0.695380 0.196769 0.748880 -0.045098
C109  C     C_R   0.803660 0.695941 0.250294 -0.047532
C110  C     C_R   0.195340 0.303088 0.750231 -0.059395
C111  C     C_R   0.698135 0.194375 0.249047 -0.047638
C112  C     C_1   0.000000 0.500000 0.526660 -0.048789
C113  C     C_R   0.304622 0.803229 0.748879 -0.045083
C114  C     C_R   0.196340 0.304059 0.250295 -0.047533
C115  C     C_R   0.804661 0.696913 0.750233 -0.059396
C116  C     C_R   0.303961 0.196195 0.750156 -0.059403
C117  C     C_R   0.695120 0.802922 0.250140 -0.045904
C118  C     C_R   0.802675 0.304724 0.749458 -0.034269
C119  C     C_R   0.195359 0.696970 0.249245 -0.041981
C120  C     C_R   0.696041 0.803808 0.750156 -0.059404
C121  C     C_R   0.304880 0.197077 0.250141 -0.045905
C122  C     C_R   0.197326 0.695274 0.749458 -0.034259
C123  C     C_1   0.000000 0.500000 0.473360 -0.043165
C124  C     C_R   0.804641 0.303030 0.249245 -0.041982
C125  C     C_3   0.163974 0.717772 0.108336 0.003436
C126  C     C_3   0.106198 0.666102 0.084326 -0.352218
C127  C     C_3   0.756689 0.343957 0.887688 0.024409
C128  C     C_3   0.791588 0.370127 0.945184 -0.355509
C129  C     C_3   0.754445 0.887814 0.138574 0.003586
C130  C     C_3   0.706409 0.944577 0.108403 -0.360391
C131  C     C_3   0.280319 0.142120 0.879622 0.015870
C132  C     C_3   0.311707 0.124666 0.940658 -0.349419
C133  C     C_3   0.836031 0.282225 0.108338 0.003433
C134  C     C_R   1.000000 0.500000 0.410110 0.490488
C135  C     C_3   0.893805 0.333895 0.084327 -0.352215
C136  C     C_3   0.243304 0.656052 0.887690 0.024406
C137  C     C_3   0.208401 0.629880 0.945183 -0.355517
C138  C     C_3   0.245553 0.112175 0.138586 0.003576
C139  C     C_3   0.293580 0.055416 0.108404 -0.360404
C140  C     C_3   0.719679 0.857880 0.879623 0.015870
C141  C     C_3   0.688274 0.875345 0.940650 -0.349418
C142  C     C_3   0.135348 0.282860 0.875294 0.015301
C143  C     C_3   0.128483 0.285254 0.942655 -0.351734
C144  C     C_3   0.897038 0.757081 0.149798 0.001429
H1    H     H_    0.193717 0.741290 0.069835 0.148813
H2    H     H_    0.806633 0.322381 0.972985 0.147519
H3    H     H_    0.806831 0.557971 0.425037 0.158451
H4    H     H_    0.374274 0.709752 0.633197 0.088019
H5    H     H_    0.416924 0.794733 0.654351 0.117097
H6    H     H_    0.393728 0.845485 0.554042 0.172290
H7    H     H_    0.444230 0.760822 0.549710 0.075471
H8    H     H_    0.347973 0.762144 0.532401 0.157071
H9    H     H_    0.820371 0.156137 0.383555 0.177644
H10   H     H_    0.776699 0.086477 0.338746 0.134088
H11   H     H_    0.689798 0.061969 0.421667 0.191878
H12   H     H_    0.783595 0.050668 0.444863 0.117244
H13   H     H_    0.802522 0.877655 0.109653 0.142312
H14   H     H_    0.733485 0.131717 0.466070 0.166519
H15   H     H_    0.728769 0.653898 0.609908 0.109852
H16   H     H_    0.798853 0.600289 0.646104 0.107390
H17   H     H_    0.885028 0.631395 0.563348 0.194857
H18   H     H_    0.804533 0.584525 0.537657 0.064566
H19   H     H_    0.812686 0.681793 0.526927 0.184121
H20   H     H_    0.233661 0.433183 0.320073 0.122182
H21   H     H_    0.317339 0.389340 0.343734 0.118624
H22   H     H_    0.276079 0.396278 0.448917 0.152487
H23   H     H_    0.280913 0.484905 0.414086 0.075256
H24   H     H_    0.773891 0.911414 0.181618 0.090308
H25   H     H_    0.193122 0.442016 0.425036 0.158449
H26   H     H_    0.595406 0.698259 0.324474 0.101965
H27   H     H_    0.562879 0.791195 0.329097 0.139821
H28   H     H_    0.566971 0.787813 0.437677 0.157821
H29   H     H_    0.513252 0.712996 0.409395 0.092928
H30   H     H_    0.604896 0.696248 0.436163 0.151642
H31   H     H_    0.408181 0.185750 0.643542 0.130957
H32   H     H_    0.370548 0.276651 0.639382 0.077730
H33   H     H_    0.323987 0.248390 0.536799 0.171426
H34   H     H_    0.421954 0.240980 0.543758 0.065099
H35   H     H_    0.661534 0.961361 0.138741 0.147531
H36   H     H_    0.366786 0.159353 0.541463 0.180998
H37   H     H_    0.283560 0.679301 0.391535 0.154387
H38   H     H_    0.231682 0.607753 0.354919 0.108765
H39   H     H_    0.139999 0.611621 0.436020 0.174528
H40   H     H_    0.230543 0.595588 0.465239 0.069419
H41   H     H_    0.189569 0.684898 0.471830 0.180604
H42   H     H_    0.724542 0.388650 0.653871 0.078283
H43   H     H_    0.729056 0.345106 0.581869 0.145532
H44   H     H_    0.853528 0.400783 0.566500 0.177914
H45   H     H_    0.781044 0.466735 0.576167 0.063190
H46   H     H_    0.739757 0.993065 0.096995 0.058906
H47   H     H_    0.842910 0.447996 0.636779 0.146840
H48   H     H_    0.404587 0.301747 0.324491 0.101962
H49   H     H_    0.437115 0.208811 0.329091 0.139817
H50   H     H_    0.433030 0.212154 0.437672 0.157827
H51   H     H_    0.486746 0.286983 0.409406 0.092931
H52   H     H_    0.395103 0.303720 0.436182 0.151633
H53   H     H_    0.591838 0.814346 0.643465 0.131069
H54   H     H_    0.629389 0.723413 0.639451 0.077724
H55   H     H_    0.676061 0.751420 0.536868 0.171349
H56   H     H_    0.578098 0.758930 0.543759 0.065105
H57   H     H_    0.682465 0.921996 0.066968 0.166914
H58   H     H_    0.633346 0.840495 0.541385 0.181044
H59   H     H_    0.716435 0.320706 0.391532 0.154383
H60   H     H_    0.768316 0.392251 0.354915 0.108766
H61   H     H_    0.859994 0.388385 0.436019 0.174524
H62   H     H_    0.769450 0.404421 0.465235 0.069423
H63   H     H_    0.810423 0.315110 0.471829 0.180589
H64   H     H_    0.275485 0.611345 0.653877 0.078290
H65   H     H_    0.270960 0.654875 0.581870 0.145538
H66   H     H_    0.146503 0.599175 0.566505 0.177895
H67   H     H_    0.218992 0.533231 0.576192 0.063184
H68   H     H_    0.291895 0.095156 0.849679 0.111731
H69   H     H_    0.157116 0.551986 0.636796 0.146832
H70   H     H_    0.220240 0.148156 0.884402 0.111166
H71   H     H_    0.299537 0.169831 0.972139 0.183150
H72   H     H_    0.287027 0.073651 0.957953 0.063311
H73   H     H_    0.135318 0.763058 0.132233 0.075246
H74   H     H_    0.371755 0.117224 0.937576 0.184568
H75   H     H_    0.806289 0.258703 0.069838 0.148809
H76   H     H_    0.864687 0.236942 0.132237 0.075246
H77   H     H_    0.931029 0.350671 0.120824 0.150201
H78   H     H_    0.926216 0.306161 0.049197 0.072102
H79   H     H_    0.867624 0.383033 0.064723 0.188469
H80   H     H_    0.293627 0.686786 0.899441 0.175837
H81   H     H_    0.258569 0.607361 0.860657 0.145434
H82   H     H_    0.158528 0.597774 0.935288 0.181674
H83   H     H_    0.247426 0.595066 0.970256 0.126797
H84   H     H_    0.068973 0.649330 0.120824 0.150201
H85   H     H_    0.193348 0.677625 0.972982 0.147513
H86   H     H_    0.197465 0.122331 0.109676 0.142303
H87   H     H_    0.226123 0.088574 0.181633 0.090322
H88   H     H_    0.338462 0.038633 0.138734 0.147530
H89   H     H_    0.260233 0.006928 0.096999 0.058906
H90   H     H_    0.317513 0.078000 0.066967 0.166919
H91   H     H_    0.708117 0.904842 0.849673 0.111716
H92   H     H_    0.779755 0.851838 0.884417 0.111182
H93   H     H_    0.700429 0.830184 0.972136 0.183152
H94   H     H_    0.712952 0.926360 0.957944 0.063306
H95   H     H_    0.073790 0.693834 0.049195 0.072097
H96   H     H_    0.628227 0.882792 0.937555 0.184577
H97   H     H_    0.125675 0.225601 0.860471 0.087207
H98   H     H_    0.091472 0.317780 0.856463 0.144093
H99   H     H_    0.134806 0.342179 0.958822 0.182866
H100  H     H_    0.073826 0.264887 0.955968 0.076680
H101  H     H_    0.171163 0.250354 0.963328 0.169016
H102  H     H_    0.935155 0.724485 0.177644 0.128527
H103  H     H_    0.893110 0.813244 0.168713 0.094653
H104  H     H_    0.893785 0.796204 0.058874 0.146337
H105  H     H_    0.984179 0.789394 0.090460 0.079243
H106  H     H_    0.132378 0.616961 0.064726 0.188475
H107  H     H_    0.936216 0.707550 0.068369 0.161461
H108  H     H_    0.816428 0.141925 0.858693 0.151324
H109  H     H_    0.748084 0.082732 0.825677 0.119372
H110  H     H_    0.689136 0.070156 0.925814 0.161841
H111  H     H_    0.782732 0.038515 0.924502 0.078360
H112  H     H_    0.761452 0.125865 0.957221 0.149108
H113  H     H_    0.313167 0.896254 0.144937 0.118143
H114  H     H_    0.240044 0.849560 0.107818 0.082243
H115  H     H_    0.323629 0.813494 0.026521 0.162521
H116  H     H_    0.326899 0.911350 0.037942 0.073553
H117  H     H_    0.706363 0.313227 0.899436 0.175838
H118  H     H_    0.399761 0.854115 0.065169 0.203999
H119  H     H_    0.874325 0.774405 0.860481 0.087203
H120  H     H_    0.908530 0.682228 0.856457 0.144084
H121  H     H_    0.865201 0.657805 0.958816 0.182870
H122  H     H_    0.926184 0.735095 0.955971 0.076679
H123  H     H_    0.828848 0.749630 0.963339 0.169016
H124  H     H_    0.064844 0.275552 0.177626 0.128537
H125  H     H_    0.106872 0.186782 0.168727 0.094659
H126  H     H_    0.106229 0.203784 0.058886 0.146357
H127  H     H_    0.015827 0.210612 0.090454 0.079243
H128  H     H_    0.741430 0.392649 0.860654 0.145432
H129  H     H_    0.063804 0.292442 0.068353 0.161459
H130  H     H_    0.183554 0.858042 0.858738 0.151380
H131  H     H_    0.251835 0.917243 0.825652 0.119374
H132  H     H_    0.310877 0.929902 0.925747 0.161862
H133  H     H_    0.217270 0.961519 0.924472 0.078360
H134  H     H_    0.238602 0.874197 0.957218 0.149098
H135  H     H_    0.686830 0.103746 0.144939 0.118150
H136  H     H_    0.759960 0.150436 0.107825 0.082239
H137  H     H_    0.676385 0.186502 0.026521 0.162520
H138  H     H_    0.673112 0.088647 0.037944 0.073543
H139  H     H_    0.841466 0.402228 0.935292 0.181669
H140  H     H_    0.600247 0.145884 0.065165 0.203996
H141  H     H_    0.625747 0.290241 0.633191 0.088005
H142  H     H_    0.583084 0.205260 0.654336 0.117097
H143  H     H_    0.606291 0.154511 0.554028 0.172277
H144  H     H_    0.555812 0.239182 0.549689 0.075474
H145  H     H_    0.652071 0.237840 0.532396 0.157076
H146  H     H_    0.179627 0.843866 0.383553 0.177644
H147  H     H_    0.223301 0.913526 0.338745 0.134088
H148  H     H_    0.310199 0.938034 0.421667 0.191877
H149  H     H_    0.216402 0.949334 0.444863 0.117241
H150  H     H_    0.752564 0.404946 0.970253 0.126797
H151  H     H_    0.266512 0.868285 0.466069 0.166528
H152  H     H_    0.271185 0.346065 0.609846 0.109887
H153  H     H_    0.201142 0.399685 0.646087 0.107365
H154  H     H_    0.114882 0.368543 0.563381 0.194919
H155  H     H_    0.195333 0.415458 0.537652 0.064582
H156  H     H_    0.187218 0.318187 0.526914 0.184105
H157  H     H_    0.766336 0.566806 0.320064 0.122194
H158  H     H_    0.682651 0.610652 0.343703 0.118618
H159  H     H_    0.723866 0.603710 0.448896 0.152480
H160  H     H_    0.719045 0.515084 0.414062 0.075258
O1    O     O_3   0.000000 0.500000 0.250000 -0.468033
O2    O     O_R   0.000000 0.560710 0.617810 -0.540608
O3    O     O_R   0.439290 0.000000 0.382190 -0.537328
O4    O     O_R   0.560710 0.000000 0.617810 -0.530819
O5    O     O_R   0.500000 0.060710 0.882190 -0.529420
O6    O     O_R   0.500000 0.939290 0.117810 -0.541069
O7    O     O_R   0.060710 0.500000 0.882190 -0.538818
O8    O     O_R   0.939290 0.500000 0.117810 -0.536205
O9    O     O_R   0.500000 0.939290 0.882190 -0.529431
O10   O     O_R   0.500000 0.060710 0.117810 -0.541062
O11   O     O_R   0.939290 0.500000 0.882190 -0.538817
O12   O     O_3   1.000000 0.500000 0.750000 -0.463898
O13   O     O_R   0.060710 0.500000 0.117810 -0.536208
O14   O     O_R   0.085350 0.353850 0.284740 -0.523906
O15   O     O_R   0.914650 0.646150 0.715260 -0.505350
O16   O     O_R   0.353850 0.914650 0.284740 -0.532295
O17   O     O_R   0.646150 0.085350 0.715260 -0.512384
O18   O     O_R   0.914650 0.646150 0.284740 -0.523908
O19   O     O_R   0.085350 0.353850 0.715260 -0.505358
O20   O     O_R   0.646150 0.085350 0.284740 -0.532296
O21   O     O_R   0.353850 0.914650 0.715260 -0.512390
O22   O     O_R   0.085350 0.646150 0.715260 -0.498373
O23   O     O_3   0.500000 0.000000 0.250000 -0.460701
O24   O     O_R   0.914650 0.353850 0.284740 -0.511758
O25   O     O_R   0.353850 0.085350 0.715260 -0.512960
O26   O     O_R   0.646150 0.914650 0.284740 -0.533462
O27   O     O_R   0.914650 0.353850 0.715260 -0.498370
O28   O     O_R   0.085350 0.646150 0.284740 -0.511757
O29   O     O_R   0.646150 0.914650 0.715260 -0.512988
O30   O     O_R   0.353850 0.085350 0.284740 -0.533461
O31   O     O_R   0.585350 0.853850 0.784740 -0.513835
O32   O     O_R   0.414650 0.146150 0.215260 -0.513508
O33   O     O_R   0.853850 0.414650 0.784740 -0.540414
O34   O     O_3   0.500000 0.000000 0.750000 -0.468500
O35   O     O_R   0.146150 0.585350 0.215260 -0.507871
O36   O     O_R   0.414650 0.146150 0.784740 -0.513844
O37   O     O_R   0.585350 0.853850 0.215260 -0.513510
O38   O     O_R   0.146150 0.585350 0.784740 -0.540415
O39   O     O_R   0.853850 0.414650 0.215260 -0.507874
O40   O     O_R   0.585350 0.146150 0.215260 -0.508796
O41   O     O_R   0.414650 0.853850 0.784740 -0.518446
O42   O     O_R   0.853850 0.585350 0.215260 -0.518732
O43   O     O_R   0.146150 0.414650 0.784740 -0.523164
O44   O     O_R   0.414650 0.853850 0.215260 -0.508795
O45   O     O_R   1.000000 0.560710 0.382190 -0.527055
O46   O     O_R   0.585350 0.146150 0.784740 -0.518447
O47   O     O_R   0.146150 0.414650 0.215260 -0.518734
O48   O     O_R   0.853850 0.585350 0.784740 -0.523169
O49   O     O_3   0.214244 0.678104 0.143712 -0.492009
O50   O     O_3   0.807093 0.299388 0.856874 -0.540265
O51   O     O_3   0.714708 0.822171 0.144777 -0.500421
O52   O     O_3   0.312718 0.206882 0.858075 -0.486406
O53   O     O_3   0.785758 0.321894 0.143711 -0.492009
O54   O     O_3   0.192900 0.700618 0.856873 -0.540288
O55   O     O_3   0.285287 0.177821 0.144780 -0.500420
O56   O     O_R   1.000000 0.439290 0.617810 -0.540664
O57   O     O_3   0.687281 0.793121 0.858074 -0.486409
O58   O     O_3   0.204794 0.309978 0.858662 -0.492542
O59   O     O_3   0.828214 0.722393 0.145949 -0.504390
O60   O     O_3   0.709832 0.183691 0.855570 -0.529317
O61   O     O_3   0.322144 0.782287 0.143142 -0.493630
O62   O     O_3   0.795208 0.690027 0.858664 -0.492545
O63   O     O_3   0.171792 0.277609 0.145948 -0.504386
O64   O     O_3   0.290162 0.816319 0.855566 -0.529323
O65   O     O_3   0.677857 0.217712 0.143142 -0.493629
O66   O     O_3   0.695523 0.199298 0.640356 -0.498266
O67   O     O_R   0.560710 0.000000 0.382190 -0.537326
O68   O     O_3   0.286094 0.820368 0.355578 -0.537970
O69   O     O_3   0.182216 0.287252 0.642998 -0.483615
O70   O     O_3   0.778392 0.671842 0.354745 -0.503137
O71   O     O_3   0.304490 0.800688 0.640355 -0.498279
O72   O     O_3   0.713904 0.179634 0.355579 -0.537970
O73   O     O_3   0.817766 0.712722 0.642998 -0.483606
O74   O     O_3   0.221595 0.328146 0.354750 -0.503137
O75   O     O_3   0.671150 0.777066 0.354957 -0.508035
O76   O     O_3   0.294671 0.189351 0.641877 -0.485982
O77   O     O_3   0.182651 0.710640 0.356085 -0.523571
O78   O     O_R   0.439290 0.000000 0.617810 -0.530828
O79   O     O_3   0.803861 0.304177 0.641699 -0.495846
O80   O     O_3   0.328846 0.222930 0.354959 -0.508038
O81   O     O_3   0.705340 0.810653 0.641878 -0.485978
O82   O     O_3   0.817345 0.289363 0.356086 -0.523570
O83   O     O_3   0.196153 0.695806 0.641698 -0.495850
O84   O     O_R   1.000000 0.439290 0.382190 -0.527062
Zn1   Zn    Zn3+2 0.086660 0.500000 0.200670 0.947319
Zn2   Zn    Zn3+2 0.413340 0.000000 0.299330 0.928639
Zn3   Zn    Zn3+2 0.000000 0.413340 0.700670 0.952339
Zn4   Zn    Zn3+2 0.000000 0.586660 0.299330 0.951638
Zn5   Zn    Zn3+2 0.413340 0.000000 0.700670 0.950403
Zn6   Zn    Zn3+2 0.586660 0.000000 0.299330 0.928638
Zn7   Zn    Zn3+2 0.000000 0.586660 0.700670 0.952371
Zn8   Zn    Zn3+2 1.000000 0.413340 0.299330 0.951629
Zn9   Zn    Zn3+2 0.913340 0.500000 0.799330 0.930894
Zn10  Zn    Zn3+2 0.500000 0.913340 0.200670 0.944739
Zn11  Zn    Zn3+2 0.500000 0.086660 0.799330 0.948733
Zn12  Zn    Zn3+2 0.913340 0.500000 0.200670 0.947321
Zn13  Zn    Zn3+2 0.086660 0.500000 0.799330 0.930896
Zn14  Zn    Zn3+2 0.500000 0.086660 0.200670 0.944743
Zn15  Zn    Zn3+2 0.500000 0.913340 0.799330 0.948727
Zn16  Zn    Zn3+2 0.586660 0.000000 0.700670 0.950393

loop_
_geom_bond_atom_site_label_1
_geom_bond_atom_site_label_2
_ccdc_geom_bond_type
C31   H17   S    
O78   Zn5   S    
C7    H115  S    
C22   H155  S    
C26   O71   S    
C128  H150  S    
C48   H59   S    
C54   O47   A    
C133  H75   S    
C19   O68   S    
C5    H112  S    
C15   H136  S    
O34   Zn5   S    
C6    O61   S    
O27   Zn3   S    
C18   H144  S    
C12   O64   S    
C41   H43   S    
C7    H118  S    
C11   H129  S    
C77   C122  A    
C136  O54   S    
C19   C20   S    
C50   H65   S    
C55   O48   A    
C43   O80   S    
C27   H7    S    
C105  O82   S    
C132  H72   S    
C95   O72   S    
C8    H120  S    
C29   H11   S    
C129  O51   S    
O33   Zn9   S    
C36   H29   S    
C21   C22   S    
C20   H149  S    
C140  O57   S    
C21   H152  S    
C45   C47   S    
C44   H52   S    
C123  C134  S    
C91   C107  A    
C140  C141  S    
C4    H108  S    
C99   C116  A    
O2    Zn7   S    
C4    C5    S    
C64   C124  S    
C9    H121  S    
C69   C119  S    
O23   Zn6   S    
C99   O76   S    
C76   C124  A    
C16   H140  S    
O19   Zn3   S    
C43   C44   S    
C34   O75   S    
C23   H157  S    
C37   H31   S    
O67   Zn6   S    
C25   H3    S    
C26   H4    S    
C4    O60   S    
O29   Zn16  S    
C97   C103  A    
O23   Zn10  S    
C125  O49   S    
O1    Zn4   S    
C96   C104  A    
C11   H126  S    
O12   Zn13  S    
C103  C121  A    
C62   O41   A    
C83   O60   S    
C33   H22   S    
C26   H5    S    
O34   Zn11  S    
C24   C90   S    
C29   H14   S    
O84   Zn8   S    
C135  H79   S    
C6    H114  S    
C48   O82   S    
C54   C114  S    
C89   C108  A    
C59   C109  S    
C17   O66   S    
C132  H74   S    
C106  O83   S    
C67   C118  S    
O35   Zn1   S    
C100  O77   S    
C32   O74   S    
O23   Zn14  S    
C81   C110  A    
C102  O79   S    
O1    Zn8   S    
C133  C135  S    
C20   H151  S    
O40   Zn14  S    
C54   O14   A    
C73   C83   A    
C34   H27   S    
C130  H46   S    
C62   O21   A    
C70   O29   A    
C59   O42   A    
C50   H64   S    
C92   O69   S    
C27   H8    S    
C69   O35   A    
O56   Zn3   S    
C94   O71   S    
C42   H45   S    
C30   O73   S    
C46   O6    A    
O34   Zn15  S    
O28   Zn4   S    
C90   C101  T    
C103  O80   S    
C9    H123  S    
C10   H124  S    
C6    H113  S    
C21   H153  S    
O46   Zn11  S    
C3    H107  S    
C63   O38   A    
O7    Zn13  S    
C93   O70   S    
C45   H53   S    
C84   C107  A    
C60   O43   A    
C76   O53   S    
C1    C53   S    
C89   O66   S    
C78   O55   S    
C88   C111  A    
C70   C120  S    
C19   H146  S    
C139  H89   S    
C140  H91   S    
C74   O51   S    
O44   Zn10  S    
C40   H39   S    
C68   C79   T    
O32   Zn14  S    
C58   O46   A    
C38   H33   S    
C61   O20   A    
C47   H55   S    
C12   H131  S    
C75   O52   S    
C94   C113  A    
O21   Zn5   S    
C30   H15   S    
C135  H77   S    
O16   Zn2   S    
C36   H28   S    
C87   C113  A    
C20   H148  S    
C82   C109  A    
C138  H86   S    
C138  C139  S    
C39   C40   S    
O36   Zn11  S    
C142  H98   S    
O3    Zn2   S    
C47   H58   S    
O5    Zn11  S    
C46   C68   S    
C1    C57   T    
C35   O5    A    
C136  H80   S    
C106  C122  A    
C17   C18   S    
C100  C119  A    
C49   H62   S    
O12   Zn3   S    
O18   Zn4   S    
C43   H48   S    
C27   H6    S    
O9    Zn15  S    
C59   O18   A    
C28   H9    S    
C91   C100  A    
C143  H99   S    
C63   C122  S    
C65   O25   A    
C129  C130  S    
O1    Zn1   S    
C73   C118  A    
C129  H24   S    
C11   H127  S    
C71   C121  S    
C22   H156  S    
C3    H105  S    
C136  C137  S    
O37   Zn10  S    
O10   Zn14  S    
C87   O64   S    
C48   H60   S    
C97   O74   S    
C35   O9    A    
C43   H49   S    
C5    H111  S    
C15   H135  S    
C137  H83   S    
C125  H1    S    
C17   H142  S    
C128  H2    S    
O25   Zn5   S    
C32   H20   S    
C35   C79   S    
C71   O32   A    
C14   H132  S    
C41   H42   S    
C34   C36   S    
C98   O75   S    
C39   H38   S    
C10   C11   S    
O12   Zn7   S    
C34   H26   S    
O22   Zn7   S    
C77   C87   A    
C85   O62   S    
C144  H103  S    
C40   H40   S    
C97   C114  A    
C80   O57   S    
C92   C99   A    
C93   C109  A    
C66   O26   A    
C127  O50   S    
C136  H81   S    
C36   H30   S    
C141  H94   S    
C37   O76   S    
C41   C42   S    
O20   Zn6   S    
C63   O22   A    
C2    O56   A    
O45   Zn4   S    
C33   H25   S    
O13   Zn1   S    
C10   O63   S    
C33   H23   S    
C82   O59   S    
C25   H160  S    
C2    C112  S    
C26   C27   S    
C28   C29   S    
C61   O40   A    
C144  H102  S    
C30   C31   S    
O1    Zn12  S    
O47   Zn1   S    
C83   C108  A    
C16   H137  S    
C135  H78   S    
C78   C121  A    
C81   O58   S    
C143  H101  S    
C70   O31   A    
C42   H47   S    
C66   C117  S    
C31   H18   S    
C19   H147  S    
C32   H21   S    
C7    H116  S    
C22   H154  S    
O15   Zn7   S    
C74   C82   A    
C126  H95   S    
C64   O24   A    
C133  H76   S    
C38   H36   S    
C50   O83   S    
C56   O44   A    
C112  C123  T    
C137  H85   S    
C12   H130  S    
C18   H143  S    
C144  O59   S    
C71   O30   A    
C105  C124  A    
C80   C85   A    
C39   O77   S    
O12   Zn9   S    
C85   C115  A    
C23   O70   S    
C15   O65   S    
C50   C51   S    
C132  H71   S    
C13   O67   A    
C8    H119  S    
O30   Zn2   S    
C130  H57   S    
C62   C113  S    
C29   H12   S    
C14   H133  S    
C48   C49   S    
C49   H61   S    
C141  H96   S    
C125  C126  S    
C131  C132  S    
O38   Zn13  S    
O43   Zn13  S    
C69   O28   A    
C42   H44   S    
O41   Zn15  S    
C44   H51   S    
C21   O69   S    
C2    O2    A    
C13   O3    A    
C53   O13   A    
C3    C144  S    
C60   O19   A    
O34   Zn16  S    
C9    H122  S    
C126  H106  S    
C134  O45   A    
C32   C33   S    
C23   H158  S    
C37   H32   S    
C24   O78   A    
C51   H66   S    
C55   C115  S    
C58   C108  S    
C60   C110  S    
C52   C57   S    
O24   Zn8   S    
C28   O72   S    
C140  H92   S    
C142  C143  S    
C75   C116  A    
O14   Zn8   S    
O42   Zn12  S    
C104  C120  A    
C125  H73   S    
C80   C120  A    
C38   H34   S    
C8    O62   S    
C89   C102  A    
C58   O17   A    
C92   C110  A    
O23   Zn2   S    
C129  H13   S    
C30   H16   S    
O26   Zn6   S    
C14   H134  S    
C37   C38   S    
C138  H87   S    
C67   O33   A    
C104  O81   S    
C67   O27   A    
C15   C16   S    
C142  O58   S    
C134  O84   A    
C53   O8    A    
C95   C105  A    
O48   Zn9   S    
C49   H63   S    
C8    C9    S    
C96   C115  A    
C139  H88   S    
O39   Zn12  S    
C76   C88   A    
C84   O61   S    
C102  C118  A    
C51   H69   S    
C86   O63   S    
O4    Zn16  S    
C131  H70   S    
C28   H10   S    
C4    H109  S    
C66   O37   A    
C6    C7    S    
C18   H145  S    
C31   H19   S    
C75   C81   A    
O31   Zn15  S    
C40   H41   S    
C45   H54   S    
C131  O52   S    
C10   H125  S    
C127  H117  S    
C5    H110  S    
C24   O4    A    
C56   C107  S    
C45   O81   S    
C137  H82   S    
C17   H141  S    
C41   O79   S    
C139  H90   S    
C72   C84   A    
O17   Zn16  S    
C39   H37   S    
C96   O73   S    
O6    Zn10  S    
C12   C14   S    
C127  H128  S    
C65   C116  S    
C133  O53   S    
C47   H56   S    
C13   C101  S    
C61   C111  S    
C91   O68   S    
C98   C117  A    
C88   O65   S    
C74   C117  A    
C94   C106  A    
C141  H93   S    
C126  H84   S    
C55   O15   A    
C52   O11   A    
C56   O16   A    
C142  H97   S    
C25   H159  S    
C64   O39   A    
C44   H50   S    
C52   O7    A    
C86   C114  A    
C138  O55   S    
C95   C111  A    
C46   O10   A    
C78   C86   A    
C77   O54   S    
C72   C119  A    
C72   O49   S    
C23   C25   S    
C16   H138  S    
C73   O50   S    
C130  H35   S    
O8    Zn12  S    
C51   H67   S    
O11   Zn9   S    
C3    H104  S    
C131  H68   S    
C143  H100  S    
C65   O36   A    
C128  H139  S    
C93   C98   A    
C127  C128  S    
