data_mof_unit_pretest_1411.cif
_audit_creation_date              2012-10-26T19:00:01-0400
_audit_creation_method            fapswitch 2.2
_symmetry_space_group_name_H-M    P1
_symmetry_Int_Tables_number       1
_space_group_crystal_system       triclinic
_cell_length_a                    9.580201
_cell_length_b                    10.850569
_cell_length_c                    17.119944
_cell_angle_alpha                 88.103667
_cell_angle_beta                  93.168022
_cell_angle_gamma                 91.013535
_cell_volume                      1775.71185685

loop_
_atom_site_label
_atom_site_type_symbol
_atom_type_description
_atom_site_fract_x
_atom_site_fract_y
_atom_site_fract_z
_atom_type_partial_charge
C1    C     C_R   0.499120 0.262471 0.501746 0.547118
C2    C     C_R   0.498017 0.129221 0.509902 0.009910
C3    C     C_R   0.371963 0.061648 0.511865 -0.160370
C4    C     C_R   0.516712 0.498140 0.650724 0.547819
C5    C     C_R   0.373284 0.933133 0.511814 -0.153380
C6    C     C_R   0.500749 0.870849 0.509039 0.011187
C7    C     C_R   0.625314 0.938987 0.518114 0.025063
C8    C     C_3   0.752928 0.940646 0.471759 -0.277027
C9    C     C_3   0.750573 0.080066 0.472335 -0.257291
C10   C     C_R   0.068128 0.543177 0.436191 0.156372
C11   C     C_R   0.075825 0.435371 0.556829 0.113755
C12   C     C_R   0.653817 0.477310 0.778149 -0.151807
C13   C     C_R   0.928035 0.443848 0.558658 0.016129
C14   C     C_R   0.921285 0.540699 0.435430 0.154931
C15   C     C_3   0.913817 0.664984 0.396197 -0.277110
C16   C     C_R   0.500818 0.737738 0.501329 0.552277
C17   C     C_3   0.072673 0.667943 0.397859 -0.268907
C18   C     C_R   0.483373 0.502340 0.349247 0.564466
C19   C     C_R   0.525292 0.496573 0.736471 0.008884
C20   C     C_R   0.404804 0.514213 0.777398 -0.158002
C21   C     C_R   0.412471 0.512562 0.858734 -0.090609
C22   C     C_R   0.541712 0.493266 0.900609 0.224048
C23   C     C_R   0.592744 0.514345 0.141443 0.366168
C24   C     C_R   0.661472 0.475502 0.859612 -0.088745
C25   C     C_3   0.144721 0.348760 0.618380 -0.257983
C26   C     C_3   0.077610 0.219478 0.618775 -0.475289
C27   C     C_R   0.598642 0.510781 0.222782 -0.136558
C28   C     C_R   0.461531 0.511508 0.099062 0.240863
C29   C     C_R   0.475512 0.505628 0.263425 -0.117221
C30   C     C_R   0.345549 0.505017 0.221459 -0.134353
C31   C     C_R   0.338895 0.508281 0.139962 0.356056
C32   C     C_R   0.623546 0.065976 0.518403 0.021909
Cu1   Cu    Cu3+1 0.640670 0.499980 0.500000 0.940394
Cu2   Cu    Cu3+1 0.359330 0.500020 0.500000 0.933739
F1    F     F_    0.715266 0.522347 0.105179 -0.579880
F2    F     F_    0.212134 0.507061 0.100416 -0.584597
H1    H     H_    0.700215 0.512606 0.253856 0.170781
H2    H     H_    0.114568 0.666364 0.338653 0.146268
H3    H     H_    0.120465 0.738775 0.436825 0.141329
H4    H     H_    0.761254 0.460437 0.891071 0.160617
H5    H     H_    0.748336 0.463083 0.747939 0.127458
H6    H     H_    0.248946 0.501784 0.251536 0.171712
H7    H     H_    0.317377 0.526505 0.888406 0.165678
H8    H     H_    0.304639 0.530247 0.746670 0.130387
H9    H     H_    0.272507 0.107503 0.508944 0.134976
H10   H     H_    0.973251 0.219226 0.643822 0.143377
H11   H     H_    0.067065 0.184887 0.558446 0.143763
H12   H     H_    0.274162 0.883639 0.509897 0.130524
H13   H     H_    0.144459 0.155090 0.655427 0.151478
H14   H     H_    0.254325 0.333013 0.609130 0.220996
H15   H     H_    0.137621 0.388054 0.677082 0.122230
H16   H     H_    0.844734 0.902340 0.506308 0.133837
H17   H     H_    0.732184 0.904165 0.412216 0.140198
H18   H     H_    0.839939 0.121034 0.507036 0.137679
H19   H     H_    0.728582 0.123893 0.413386 0.155438
H20   H     H_    0.873424 0.401423 0.606403 0.124675
H21   H     H_    0.863811 0.662136 0.336130 0.142863
H22   H     H_    0.870751 0.732725 0.434398 0.143427
N1    N     N_2   0.556362 0.491049 0.983462 -0.137325
N2    N     N_2   0.446985 0.513333 0.016110 -0.184316
N3    N     N_R   0.147870 0.500930 0.499500 -0.230529
N4    N     N_R   0.851960 0.500890 0.499500 -0.247924
O1    O     O_R   0.618810 0.319640 0.500000 -0.500366
O2    O     O_R   0.381230 0.319680 0.499990 -0.521609
O3    O     O_R   0.631790 0.498830 0.613930 -0.511075
O4    O     O_R   0.394210 0.498870 0.613920 -0.527860
O5    O     O_R   0.618770 0.680320 0.500010 -0.497427
O6    O     O_R   0.381190 0.680360 0.500000 -0.507783
O7    O     O_R   0.605790 0.501130 0.386080 -0.499283
O8    O     O_R   0.368210 0.501170 0.386070 -0.496150

loop_
_geom_bond_atom_site_label_1
_geom_bond_atom_site_label_2
_ccdc_geom_bond_type
C8    H17   S    
C18   O8    A    
C25   H15   S    
C11   N3    A    
C6    C7    A    
C16   O6    A    
C23   C27   A    
C27   C29   A    
C11   C13   A    
C8    H16   S    
C31   F2    S    
C19   C20   A    
C14   C15   S    
Cu1   O7    S    
Cu1   O1    S    
C13   H20   S    
Cu2   O4    S    
C18   O7    A    
Cu2   O2    S    
Cu1   Cu2   S    
C8    C9    S    
Cu1   O3    S    
N1    N2    D    
C16   O5    A    
C5    H12   S    
C21   C22   A    
C18   C29   S    
C4    O4    A    
C15   H21   S    
C29   C30   A    
C26   H11   S    
C27   H1    S    
C9    H19   S    
C5    C6    A    
C1    O1    A    
C12   C19   A    
C20   H8    S    
C2    C3    A    
C23   F1    S    
C17   H2    S    
C28   N2    S    
C17   H3    S    
C30   C31   A    
C15   H22   S    
C22   C24   A    
C10   N3    A    
C23   C28   A    
C26   H10   S    
C10   C17   S    
C6    C16   S    
C14   N4    A    
C1    O2    A    
C7    C8    S    
C20   C21   A    
Cu1   O5    S    
C12   H5    S    
C2    C32   A    
C1    C2    S    
C10   C14   A    
C26   H13   S    
Cu2   O6    S    
C22   N1    S    
C15   C17   S    
C11   C25   S    
C4    O3    A    
C30   H6    S    
C7    C32   A    
C9    C32   S    
C24   H4    S    
C25   C26   S    
C21   H7    S    
C4    C19   S    
Cu2   O8    S    
C9    H18   S    
C3    H9    S    
C28   C31   A    
C25   H14   S    
C13   N4    A    
C12   C24   A    
Cu1   N4    S    
C3    C5    A    
Cu2   N3    S    
