data_mof_unit_pretest_1346.cif
_audit_creation_date              2012-12-10T17:01:28-0500
_audit_creation_method            fapswitch 2.2
_symmetry_space_group_name_H-M    P1
_symmetry_Int_Tables_number       1
_space_group_crystal_system       triclinic
_cell_length_a                    12.836406
_cell_length_b                    10.568591
_cell_length_c                    10.016062
_cell_angle_alpha                 88.607819
_cell_angle_beta                  97.86514
_cell_angle_gamma                 89.64246
_cell_volume                      1345.56374983

loop_
_atom_site_label
_atom_site_type_symbol
_atom_type_description
_atom_site_fract_x
_atom_site_fract_y
_atom_site_fract_z
_atom_type_partial_charge
C1    C     C_R   0.482461 0.264177 0.498238 0.905143
C2    C     C_2   0.437352 0.137615 0.494790 -0.287067
C3    C     C_2   0.549485 0.583187 0.931537 -0.193994
C4    C     C_R   0.298250 0.503676 0.472545 0.944602
C5    C     C_2   0.542251 0.589148 0.080077 0.713879
C6    C     C_R   0.500659 0.738997 0.498028 0.917443
C7    C     C_R   0.701703 0.502137 0.527239 0.904414
C8    C     C_R   0.814388 0.506564 0.546195 -0.247042
C9    C     C_R   0.186409 0.523209 0.454848 -0.202308
C10   C     C_R   0.037827 0.668814 0.408741 -0.033376
C11   C     C_R   0.141280 0.634978 0.391334 -0.200794
C12   C     C_R   0.027288 0.473289 0.543556 -0.069578
C13   C     C_R   0.130605 0.444903 0.531769 0.604838
C14   C     C_2   0.802255 0.679918 0.370967 0.507913
C15   C     C_2   0.399552 0.088054 0.620719 0.476172
C16   C     C_2   0.999553 0.801050 0.376632 0.477903
C17   C     C_2   0.204877 0.722006 0.317990 0.604442
C18   C     C_2   0.401149 0.131216 0.242288 0.547053
C19   C     C_R   0.976707 0.580368 0.473363 0.004555
C20   C     C_R   0.866444 0.591530 0.467748 -0.186319
C21   C     C_R   0.868863 0.413958 0.630208 0.619869
C22   C     C_R   0.974368 0.395118 0.625823 -0.171907
C23   C     C_2   0.438764 0.933932 0.384192 0.584418
C24   C     C_2   0.495708 0.874425 0.490293 -0.391134
C25   C     C_2   0.424960 0.071483 0.379213 -0.120190
F1    F     F_    0.583866 0.691663 0.146074 -0.599047
F2    F     F_    0.817667 0.332763 0.705412 -0.634936
F3    F     F_    0.178377 0.340622 0.596544 -0.652255
F4    F     F_    0.396629 0.868654 0.274545 -0.623712
H1    H     H_    0.596300 0.654413 0.888270 0.203607
H2    H     H_    0.429777 0.087622 0.157093 0.092908
H3    H     H_    0.451051 0.439327 0.890893 0.171881
H4    H     H_    0.476167 0.420170 0.099792 0.119421
H5    H     H_    0.013789 0.316872 0.684457 0.233655
H6    H     H_    0.535105 0.924637 0.575674 0.108887
H7    H     H_    0.739890 0.735958 0.404154 0.053172
H8    H     H_    0.429011 0.127146 0.717654 0.099622
H9    H     H_    0.954106 0.848340 0.444790 0.051191
H10   H     H_    0.215193 0.819361 0.348735 0.111796
N1    N     N_2   0.501130 0.501330 0.852280 -0.211907
N2    N     N_2   0.501160 0.501360 0.147950 -0.212208
O1    O     O_R   0.499980 0.319060 0.613040 -0.614211
O2    O     O_2   0.332233 0.006481 0.616527 -0.535047
O3    O     O_2   0.015197 0.856508 0.272950 -0.503282
O4    O     O_2   0.241696 0.686777 0.218968 -0.454286
O5    O     O_2   0.343999 0.224528 0.222237 -0.530174
O6    O     O_R   0.500020 0.319100 0.386900 -0.594644
O7    O     O_R   0.346340 0.499960 0.594380 -0.591412
O8    O     O_R   0.346380 0.500000 0.368250 -0.552554
O9    O     O_R   0.499980 0.680900 0.613100 -0.625752
O10   O     O_R   0.500020 0.680940 0.386960 -0.504245
O11   O     O_R   0.653620 0.500000 0.631750 -0.563909
O12   O     O_R   0.653660 0.500040 0.405620 -0.605549
O13   O     O_2   0.814613 0.684619 0.252197 -0.468843
Zn1   Zn    Zn3+2 0.499980 0.499970 0.650990 1.021651
Zn2   Zn    Zn3+2 0.500020 0.500030 0.349010 1.101249

loop_
_geom_bond_atom_site_label_1
_geom_bond_atom_site_label_2
_ccdc_geom_bond_type
C7    O11   A    
O7    Zn1   S    
C23   C24   D    
C23   F4    S    
C13   F3    S    
C6    C24   S    
C12   C22   A    
O1    Zn1   S    
C3    H1    S    
O8    Zn2   S    
C10   C19   A    
C19   C20   A    
O11   Zn1   S    
C4    O8    A    
N1    Zn1   S    
H4    N2    S    
C23   C25   S    
C8    C21   A    
C21   F2    S    
C15   O2    D    
C7    C8    S    
N2    Zn2   S    
C10   C16   S    
C21   C22   A    
C6    O9    A    
C2    C15   S    
C9    C11   A    
C8    C20   A    
C18   C25   S    
C18   O5    D    
C12   C19   A    
C14   O13   D    
C17   O4    D    
C3    N1    D    
C1    C2    S    
C2    C25   D    
H3    N1    S    
C14   H7    S    
C22   H5    S    
O12   Zn2   S    
C24   H6    S    
C10   C11   A    
C7    O12   A    
C5    F1    S    
C14   C20   S    
C1    O1    A    
C9    C13   A    
C12   C13   A    
O10   Zn2   S    
C4    O7    A    
C6    O10   A    
C17   H10   S    
C15   H8    S    
C5    N2    D    
C18   H2    S    
C4    C9    S    
C16   O3    D    
C1    O6    A    
O9    Zn1   S    
C16   H9    S    
O6    Zn2   S    
C3    C5    S    
C11   C17   S    
