data_mof_unit_pretest_1117.cif
_audit_creation_date              2012-12-10T19:03:06-0500
_audit_creation_method            fapswitch 2.2
_symmetry_space_group_name_H-M    P1
_symmetry_Int_Tables_number       1
_space_group_crystal_system       triclinic
_cell_length_a                    10.909895
_cell_length_b                    10.897219
_cell_length_c                    9.654472
_cell_angle_alpha                 91.034545
_cell_angle_beta                  89.73014
_cell_angle_gamma                 92.570075
_cell_volume                      1146.44599377

loop_
_atom_site_label
_atom_site_type_symbol
_atom_type_description
_atom_site_fract_x
_atom_site_fract_y
_atom_site_fract_z
_atom_type_partial_charge
C1    C     C_R   0.501855 0.262029 0.498269 0.939379
C2    C     C_3   0.878877 0.504643 0.499695 -0.279772
C3    C     C_3   0.936912 0.603009 0.603993 0.233643
C4    C     C_3   0.932714 0.532694 0.350523 0.136661
C5    C     C_R   0.486284 0.064488 0.619365 0.078488
C6    C     C_R   0.493855 0.126936 0.494209 -0.307889
C7    C     C_R   0.477099 0.057225 0.369313 0.405576
C8    C     C_R   0.452142 0.930102 0.373359 0.395457
C9    C     C_R   0.465391 0.867703 0.499667 -0.312308
C10   C     C_R   0.469688 0.937399 0.622299 -0.059701
C11   C     C_3   0.550675 0.923830 0.743717 0.145046
C12   C     C_R   0.260334 0.500320 0.499884 0.876553
C13   C     C_3   0.580114 0.060737 0.733095 0.688286
C14   C     C_R   0.554292 0.595070 0.075740 0.018044
C15   C     C_R   0.430269 0.415781 0.071243 0.476477
C16   C     C_R   0.432159 0.415127 0.924535 0.505829
C17   C     C_R   0.559374 0.592552 0.928671 0.189221
C18   C     C_3   0.694913 0.622984 0.934449 0.573325
C19   C     C_3   0.683737 0.636888 0.090545 0.173062
C20   C     C_R   0.489035 0.736219 0.500515 0.845301
C21   C     C_R   0.740138 0.504461 0.499733 0.967395
C22   C     C_3   0.064169 0.382157 0.573044 0.576252
C23   C     C_3   0.920952 0.373405 0.544174 0.455596
C24   C     C_3   0.077695 0.615540 0.580726 -0.526646
C25   C     C_3   0.071840 0.507198 0.343750 0.645947
C26   C     C_3   0.122408 0.499812 0.498366 -0.342515
Cu1   Cu    Cu3+1 0.499990 0.499980 0.640670 1.136073
Cu2   Cu    Cu3+1 0.500010 0.500020 0.359330 1.059659
H1    H     H_    0.101888 0.702002 0.526555 0.242409
H2    H     H_    0.629434 0.866566 0.719783 0.190655
H3    H     H_    0.737419 0.571109 0.147462 0.174152
H4    H     H_    0.124181 0.627571 0.682581 0.252734
H5    H     H_    0.920815 0.570427 0.710396 0.208639
H6    H     H_    0.883708 0.472747 0.272600 0.186179
N1    N     N_R   0.500800 0.500930 0.147930 -0.298486
N2    N     N_R   0.500800 0.500890 0.852020 -0.274752
O1    O     O_R   0.500000 0.319640 0.618810 -0.508156
O2    O     O_R   0.500010 0.319680 0.381230 -0.580631
O3    O     O_R   0.317690 0.499960 0.618790 -0.535270
O4    O     O_R   0.317700 0.500000 0.381210 -0.589428
O5    O     O_R   0.499990 0.680320 0.618770 -0.559493
O6    O     O_R   0.500000 0.680360 0.381190 -0.546192
O7    O     O_R   0.682300 0.500000 0.618790 -0.500223
O8    O     O_R   0.682310 0.500040 0.381210 -0.591618
Cl1   Cl    Cl    0.093448 0.394923 0.757491 -0.411217
Cl2   Cl    Cl    0.908107 0.687468 0.297944 -0.449504
Cl3   Cl    Cl    0.870430 0.750920 0.603207 -0.483535
Cl4   Cl    Cl    0.500140 0.119106 0.203241 -0.400959
O9    O     O_3   0.422243 0.869299 0.250749 -0.599874
H7    H     H_    0.358707 0.804419 0.272143 0.346447
Cl5   Cl    Cl    0.460993 0.879482 0.891639 -0.431491
O10   O     O_3   0.549282 0.129647 0.850911 -0.563747
H8    H     H_    0.614728 0.117613 0.919735 0.396934
O11   O     O_3   0.701163 0.088033 0.688436 -0.655361
H9    H     H_    0.716567 0.040828 0.601521 0.323350
O12   O     O_3   0.354403 0.327671 0.131206 -0.566448
H10   H     H_    0.346972 0.345677 0.229877 0.403610
Cl6   Cl    Cl    0.137468 0.242559 0.524156 -0.423583
Cl7   Cl    Cl    0.344031 0.298038 0.840183 -0.290592
O13   O     O_3   0.764070 0.523096 0.893600 -0.673868
H11   H     H_    0.847070 0.538088 0.933889 0.344610
O14   O     O_3   0.730210 0.731381 0.867217 -0.680487
H12   H     H_    0.815173 0.753513 0.897922 0.381061
O15   O     O_3   0.696864 0.758926 0.141504 -0.588584
H13   H     H_    0.637260 0.810137 0.094436 0.401474
O16   O     O_3   0.892501 0.289599 0.434682 -0.682610
H14   H     H_    0.894861 0.204936 0.470398 0.412009
Cl8   Cl    Cl    0.837845 0.317507 0.695493 -0.402513
O17   O     O_3   0.135928 0.596950 0.263518 -0.617333
H15   H     H_    0.159820 0.669755 0.321290 0.328496
Cl9   Cl    Cl    0.089712 0.367495 0.244965 -0.379242

loop_
_geom_bond_atom_site_label_1
_geom_bond_atom_site_label_2
_ccdc_geom_bond_type
C23   Cl8   S    
C12   O4    A    
C20   O6    A    
C24   H4    S    
C22   Cl6   S    
O14   H12   S    
C25   Cl9   S    
C17   N2    A    
Cu2   O2    S    
Cu1   N2    S    
C13   O10   S    
C9    C10   A    
Cu1   O5    S    
C9    C20   S    
C2    C4    S    
C1    O1    A    
C19   O15   S    
C19   H3    S    
O15   H13   S    
C2    C23   S    
C2    C21   S    
O13   H11   S    
O16   H14   S    
C7    C8    A    
C4    Cl2   S    
O10   H8    S    
C7    Cl4   S    
C24   H1    S    
C11   C13   S    
C14   C17   A    
C3    C24   S    
C6    C7    A    
C1    O2    A    
Cu1   O1    S    
C20   O5    A    
C5    C6    A    
C14   C19   S    
C23   O16   S    
C3    Cl3   S    
C24   C26   S    
C4    C25   S    
C2    C3    S    
C22   C23   S    
O17   H15   S    
C15   O12   S    
C4    H6    S    
C11   Cl5   S    
C10   C11   S    
Cu2   O4    S    
Cu1   O3    S    
C15   C16   A    
C21   O8    A    
Cu1   O7    S    
C5    C10   A    
C22   Cl1   S    
C25   O17   S    
O12   H10   S    
Cu2   N1    S    
C18   O13   S    
C17   C18   S    
C13   O11   S    
C22   C26   S    
C15   N1    A    
C14   N1    A    
O9    H7    S    
C3    H5    S    
O11   H9    S    
C18   C19   S    
C18   O14   S    
Cu2   O6    S    
C25   C26   S    
C21   O7    A    
C5    C13   S    
C8    O9    S    
Cu2   O8    S    
C12   O3    A    
C16   N2    A    
C1    C6    S    
C11   H2    S    
C12   C26   S    
C8    C9    A    
Cu1   Cu2   S    
C16   Cl7   S    
