data_mof_unit_pretest_900.cif
_audit_creation_date              2013-03-05T16:46:56-0500
_audit_creation_method            fapswitch 2.2
_symmetry_space_group_name_H-M    P1
_symmetry_Int_Tables_number       1
_space_group_crystal_system       triclinic
_cell_length_a                    18.181026
_cell_length_b                    18.269162
_cell_length_c                    18.415938
_cell_angle_alpha                 120.016112
_cell_angle_beta                  90.143118
_cell_angle_gamma                 119.829798
_cell_volume                      4329.94455472

loop_
_atom_site_label
_atom_site_type_symbol
_atom_site_description
_atom_site_fract_x
_atom_site_fract_y
_atom_site_fract_z
_atom_type_partial_charge
Zn1   Zn    Zn3+2 0.456040 0.586770 0.543190 1.044230
Zn2   Zn    Zn3+2 0.456820 0.413240 0.543960 1.004712
Zn3   Zn    Zn3+2 0.631110 0.586750 0.543190 1.085367
Zn4   Zn    Zn3+2 0.456040 0.413240 0.369660 1.069330
O1    O     O_3   0.500000 0.500000 0.500000 -0.522313
O2    O     O_R   0.383400 0.268380 0.323710 -0.619724
O3    O     O_R   0.555060 0.731630 0.615290 -0.613322
O4    O     O_R   0.383950 0.439280 0.616600 -0.648677
O5    O     O_R   0.677590 0.560710 0.444390 -0.605338
O6    O     O_R   0.556370 0.439260 0.616600 -0.651549
O7    O     O_R   0.382640 0.439290 0.322940 -0.626079
O8    O     O_R   0.678360 0.560700 0.616060 -0.626790
O9    O     O_R   0.382640 0.560750 0.444390 -0.647547
O10   O     O_R   0.383400 0.560740 0.616060 -0.615121
O11   O     O_R   0.555060 0.439270 0.322940 -0.591452
O12   O     O_R   0.383950 0.268380 0.445700 -0.644095
O13   O     O_R   0.677590 0.731610 0.615290 -0.593939
C1    C     C_R   0.360432 0.220089 0.361030 0.823969
C2    C     C_R   0.641132 0.780982 0.640286 0.873878
C3    C     C_R   0.358192 0.499455 0.639635 0.833204
C4    C     C_R   0.640325 0.500228 0.359164 0.901801
C5    C     C_R   0.641965 0.499944 0.639723 0.827042
C6    C     C_R   0.358157 0.500315 0.359527 0.798604
C7    C     C_3   0.349468 0.533506 0.244959 -0.451413
H1    H     H_    0.368262 0.480460 0.202564 0.210436
H2    H     H_    0.413027 0.612421 0.288801 0.192208
C8    C     C_3   0.289028 0.532851 0.184953 -0.414400
H3    H     H_    0.323645 0.611332 0.199632 0.177012
H4    H     H_    0.278306 0.478812 0.114054 0.189044
H5    H     H_    0.230784 0.338121 0.191018 0.125082
H6    H     H_    0.135387 0.332977 0.107409 0.165480
C9    C     C_3   0.211169 0.388697 0.236969 0.179844
C10   C     C_3   0.276651 0.578008 0.359771 -0.339834
C11   C     C_3   0.299468 0.499805 0.302171 0.033765
H7    H     H_    0.244346 0.561239 0.405397 0.225341
H8    H     H_    0.339652 0.657649 0.402554 0.192612
C12   C     C_3   0.197125 0.499396 0.200429 0.087033
C13   C     C_3   0.149937 0.389665 0.178976 -0.436132
C14   C     C_3   0.214737 0.575431 0.300392 -0.298517
H9    H     H_    0.149876 0.551201 0.313803 0.251579
H10   H     H_    0.083916 0.364897 0.189903 0.220946
C15   C     C_3   0.676551 0.939775 0.655368 -0.438277
H11   H     H_    0.605671 0.914018 0.643916 0.256576
H12   H     H_    0.680655 0.905485 0.587216 0.201755
C16   C     C_3   0.741932 0.059322 0.710563 0.181181
H13   H     H_    0.789731 0.078718 0.674919 0.154493
H14   H     H_    0.689352 0.082195 0.858331 0.243476
C17   C     C_3   0.684319 0.938373 0.795335 0.485440
C18   C     C_3   0.802593 0.943059 0.720223 0.119706
C19   C     C_3   0.699281 0.897544 0.701118 -0.188368
H15   H     H_    0.819533 0.913524 0.752961 0.159838
C20   C     C_3   0.799157 0.102756 0.803400 -0.070605
C21   C     C_3   0.736759 0.059618 0.849664 -0.447377
C22   C     C_3   0.859818 0.062386 0.786356 -0.510641
H16   H     H_    0.911512 0.098831 0.760872 0.217894
H17   H     H_    0.897526 0.086058 0.850437 0.209939
H18   H     H_    0.777128 0.100570 0.919222 0.197207
C23   C     C_3   0.638840 0.404462 0.198915 0.139000
H19   H     H_    0.615440 0.331047 0.190858 0.182233
C24   C     C_3   0.698876 0.414112 0.140878 -0.539893
H20   H     H_    0.686352 0.337289 0.093111 0.191542
H21   H     H_    0.681202 0.435919 0.100621 0.239850
H22   H     H_    0.698757 0.604030 0.277677 0.183904
H23   H     H_    0.802220 0.622995 0.210017 0.152417
C25   C     C_3   0.748695 0.601144 0.308560 0.066045
C26   C     C_3   0.767031 0.481184 0.328784 0.010562
C27   C     C_3   0.696737 0.496751 0.300532 -0.197131
H24   H     H_    0.814489 0.550994 0.396036 0.202914
C28   C     C_3   0.799807 0.497032 0.199934 -0.069696
C29   C     C_3   0.814401 0.603637 0.255291 -0.419693
C30   C     C_3   0.819870 0.469146 0.261985 0.081185
H25   H     H_    0.794279 0.385996 0.217520 0.141539
H26   H     H_    0.885417 0.665698 0.299444 0.262042
H27   H     H_    0.460284 0.239670 0.684805 0.170353
C31   C     C_R   0.470965 0.186092 0.554651 -0.162717
H28   H     H_    0.540618 0.214556 0.577074 0.164087
C32   C     C_R   0.427473 0.136228 0.465049 -0.108023
H29   H     H_    0.463999 0.126815 0.418548 0.146410
C33   C     C_R   0.337441 0.099817 0.435906 0.073758
C34   C     C_R   0.291148 0.113221 0.497067 -0.179231
H30   H     H_    0.221805 0.085530 0.474072 0.181806
C35   C     C_R   0.334778 0.164370 0.587649 0.375298
C36   C     C_R   0.425092 0.200274 0.615661 -0.183548
C37   C     C_R   0.235644 0.944031 0.286435 -0.220730
H31   H     H_    0.227505 0.901089 0.313952 0.189449
C38   C     C_R   0.191599 0.892348 0.196384 -0.057623
C39   C     C_R   0.203201 0.949106 0.160907 -0.014875
C40   C     C_R   0.260298 0.056053 0.216236 -0.207334
H32   H     H_    0.268438 0.099153 0.188882 0.189598
C41   C     C_R   0.304544 0.107667 0.306143 -0.052633
C42   C     C_R   0.292206 0.050953 0.341819 0.009079
C43   C     C_R   0.205515 0.902511 0.008589 -0.120500
H33   H     H_    0.277325 0.939513 0.031451 0.144055
C44   C     C_R   0.161547 0.855109 0.919714 -0.116902
H34   H     H_    0.199300 0.855808 0.874424 0.144078
C45   C     C_R   0.068838 0.806515 0.889202 -0.118400
H35   H     H_    0.035078 0.769589 0.820324 0.134940
C46   C     C_R   0.019901 0.805563 0.947563 -0.107202
C47   C     C_R   0.063570 0.852624 0.036489 -0.091151
C48   C     C_R   0.156627 0.900714 0.067310 0.138985
H36   H     H_    0.992673 0.749107 0.574656 0.211057
C49   C     C_R   0.915168 0.602966 0.557779 -0.118291
C50   C     C_R   0.860552 0.548935 0.590752 -0.134954
H37   H     H_    0.835290 0.468640 0.558631 0.175544
C51   C     C_R   0.840365 0.599284 0.666149 0.110308
C52   C     C_R   0.875676 0.704168 0.708380 -0.134147
H38   H     H_    0.862341 0.744605 0.767832 0.150296
C53   C     C_R   0.930283 0.757851 0.675237 -0.092683
H39   H     H_    0.958488 0.839069 0.708785 0.171544
C54   C     C_R   0.949895 0.707266 0.599902 -0.028642
C55   C     C_R   0.839692 0.542074 0.760564 -0.262575
H40   H     H_    0.910257 0.574896 0.767776 0.175296
C56   C     C_R   0.799424 0.498043 0.805503 -0.033659
C57   C     C_R   0.707439 0.454521 0.795290 -0.009249
C58   C     C_R   0.658121 0.456569 0.740309 -0.254153
H41   H     H_    0.587763 0.424492 0.733742 0.179453
C59   C     C_R   0.698513 0.501395 0.695969 -0.036799
C60   C     C_R   0.790817 0.545923 0.706856 -0.005092
C61   C     C_R   0.617397 0.304770 0.805117 -0.075008
H42   H     H_    0.621950 0.255935 0.742688 0.183241
C62   C     C_R   0.567211 0.261735 0.847312 -0.079760
H43   H     H_    0.533980 0.180303 0.818063 0.191935
C63   C     C_R   0.558778 0.323526 0.926597 -0.099748
H44   H     H_    0.519425 0.290019 0.958905 0.183910
C64   C     C_R   0.600905 0.428547 0.964009 -0.127045
H45   H     H_    0.593843 0.476307 0.024909 0.187415
C65   C     C_R   0.651813 0.472039 0.922530 -0.167133
H46   H     H_    0.683372 0.553217 0.951538 0.140560
C66   C     C_R   0.660331 0.410344 0.842914 0.111934
C67   C     C_R   0.311829 0.747452 0.664754 -0.163675
H47   H     H_    0.360938 0.829664 0.698065 0.221038
C68   C     C_R   0.317953 0.700156 0.702886 -0.122144
H48   H     H_    0.370636 0.746494 0.765352 0.204375
C69   C     C_R   0.254887 0.594035 0.661807 0.098861
C70   C     C_R   0.184933 0.535811 0.582774 -0.175915
H49   H     H_    0.134589 0.454167 0.551406 0.179881
C71   C     C_R   0.177799 0.583348 0.545423 -0.202712
H50   H     H_    0.122391 0.537059 0.485084 0.221513
C72   C     C_R   0.241237 0.689714 0.585961 0.307261
C73   C     C_R   0.203384 0.545758 0.762723 -0.232828
H51   H     H_    0.168782 0.582366 0.771910 0.173795
C74   C     C_R   0.194252 0.496964 0.804473 -0.063307
C75   C     C_R   0.237612 0.446683 0.789780 -0.016645
C76   C     C_R   0.290954 0.449684 0.736082 -0.197310
H52   H     H_    0.325069 0.412495 0.726514 0.196096
C77   C     C_R   0.300594 0.499245 0.694808 -0.059383
C78   C     C_R   0.254912 0.546552 0.707293 0.017308
C79   C     C_R   0.299932 0.436994 0.903289 -0.140209
H53   H     H_    0.359187 0.514788 0.933447 0.136542
C80   C     C_R   0.293543 0.382938 0.938964 -0.113048
H54   H     H_    0.347661 0.418900 0.996275 0.143712
C81   C     C_R   0.217322 0.282547 0.900768 -0.078167
H55   H     H_    0.212311 0.241091 0.928808 0.135916
C82   C     C_R   0.147827 0.235488 0.826085 -0.057253
H56   H     H_    0.089049 0.157556 0.796262 0.139421
C83   C     C_R   0.154371 0.288876 0.789642 0.001579
H57   H     H_    0.100423 0.251593 0.731487 0.138201
C84   C     C_R   0.230007 0.390522 0.828854 0.129532
Zn5   Zn    Zn3+2 0.041710 0.413240 0.959030 0.966084
Zn6   Zn    Zn3+2 0.866640 0.413270 0.959030 1.014669
Zn7   Zn    Zn3+2 0.040930 0.586780 0.958260 0.973150
Zn8   Zn    Zn3+2 0.041710 0.586770 0.132560 1.027794
O14   O     O_3   0.997750 0.500010 0.002220 -0.498986
O15   O     O_R   0.942690 0.560750 0.179280 -0.589847
O16   O     O_R   0.114340 0.439270 0.886160 -0.651749
O17   O     O_R   0.820160 0.268410 0.886930 -0.595037
O18   O     O_R   0.113800 0.731630 0.056520 -0.638150
O19   O     O_R   0.819390 0.439310 0.886160 -0.622148
O20   O     O_R   0.115110 0.560720 0.179280 -0.619717
O21   O     O_R   0.941380 0.560750 0.885620 -0.652101
O22   O     O_R   0.115110 0.439270 0.057830 -0.648108
O23   O     O_R   0.942690 0.268390 0.886930 -0.656687
O24   O     O_R   0.114340 0.731630 0.178520 -0.639312
O25   O     O_R   0.820160 0.439310 0.057830 -0.654002
O26   O     O_R   0.113800 0.560730 0.885620 -0.640108
C85   C     C_R   0.857121 0.498264 0.142604 0.831596
C86   C     C_R   0.138744 0.499587 0.861752 0.801387
C87   C     C_R   0.856829 0.219109 0.861939 0.831164
C88   C     C_R   0.136916 0.779917 0.141239 0.781422
C89   C     C_R   0.855842 0.500058 0.862429 0.810450
C90   C     C_R   0.139544 0.499741 0.142836 0.786625
N1    N     N_R   0.162791 0.344231 0.283519 0.206603
O27   O     O_R   0.157991 0.265842 0.272939 -0.389867
O28   O     O_R   0.120464 0.378270 0.331682 -0.402477
N2    N     N_R   0.693763 0.105964 0.715996 0.220246
O29   O     O_R   0.626687 0.087917 0.746174 -0.373253
O30   O     O_R   0.715641 0.162712 0.686224 -0.418466
N3    N     N_R   0.587887 0.892530 0.786020 0.205335
O31   O     O_R   0.542717 0.913849 0.754987 -0.405203
O32   O     O_R   0.548575 0.838198 0.817282 -0.358305
N4    N     N_R   0.827516 0.911671 0.639243 0.244079
O33   O     O_R   0.858258 0.855506 0.618428 -0.318260
O34   O     O_R   0.833466 0.952204 0.596265 -0.365275
N5    N     N_R   0.719065 0.909643 0.842624 0.190749
O35   O     O_R   0.683322 0.812586 0.808319 -0.394952
O36   O     O_R   0.786623 0.978725 0.916928 -0.402391
N6    N     N_R   0.557981 0.393490 0.164793 0.227041
O37   O     O_R   0.479386 0.307092 0.131706 -0.373738
O38   O     O_R   0.563459 0.464651 0.160099 -0.463761
N7    N     N_R   0.728149 0.393213 0.335916 0.185173
O39   O     O_R   0.781606 0.376511 0.361353 -0.370607
O40   O     O_R   0.642729 0.334539 0.322040 -0.427072
N8    N     N_R   0.916253 0.528390 0.309267 0.232273
O41   O     O_R   0.954757 0.480494 0.292938 -0.361370
O42   O     O_R   0.963379 0.627598 0.370082 -0.343990
N9    N     N_R   0.794833 0.693940 0.400691 0.236339
O43   O     O_R   0.765835 0.752317 0.430787 -0.325972
O44   O     O_R   0.868874 0.724428 0.450149 -0.324933
N10   N     N_R   0.288060 0.180713 0.650818 0.201437
O45   O     O_R   0.329088 0.230487 0.734968 -0.403556
O46   O     O_R   0.204334 0.147028 0.624953 -0.392796
H58   H     H_    0.948111 0.768010 0.923806 0.135527
H59   H     H_    0.025045 0.850970 0.081097 0.118803
H60   H     H_    0.931481 0.564405 0.500189 0.213038
N11   N     N_R   0.233229 0.738989 0.548196 0.195083
O47   O     O_R   0.296465 0.834799 0.580337 -0.370668
O48   O     O_R   0.161843 0.689143 0.482415 -0.365307
H61   H     H_    0.246616 0.654873 0.317932 0.199757

loop_
_geom_bond_atom_site_label_1
_geom_bond_atom_site_label_2
_geom_bond_distance
_ccdc_geom_bond_type
C5    C59   1.439000 S    
O18   C88   1.280573 A    
N8    O41   1.301279 A    
H22   C25   1.107080 S    
C23   N6    1.473915 S    
C61   C66   1.403626 A    
C8    H4    1.111334 S    
C49   C50   1.398808 A    
O16   C86   1.274105 A    
C40   C41   1.397995 A    
C14   H61   1.113469 S    
C26   H24   1.106586 S    
C55   H40   1.085024 S    
C2    C19   1.508315 S    
C7    C8    1.548043 S    
H27   C36   1.081530 S    
C31   H28   1.082596 S    
O5    C4    1.287699 A    
C65   C66   1.401980 A    
C57   C58   1.377434 A    
C41   C42   1.416365 A    
C70   H49   1.083221 S    
O26   C86   1.288555 A    
Zn8   O24   1.934066 S    
C32   H29   1.083078 S    
O6    C5    1.280697 A    
C30   N8    1.470703 S    
C69   C78   1.477022 S    
N8    O42   1.301087 A    
C43   C48   1.404226 A    
O4    C3    1.286247 A    
Zn5   O22   1.951518 S    
C55   C60   1.378465 A    
Zn1   O1    1.945886 S    
C9    N1    1.469047 S    
C83   H57   1.083166 S    
C73   C74   1.397326 A    
C77   C78   1.416299 A    
C9    C13   1.553326 S    
N11   O48   1.301501 A    
Zn7   O26   1.941757 S    
N9    O44   1.300897 A    
N2    O30   1.301225 A    
C74   C86   1.461614 S    
C25   C27   1.573645 S    
C52   H38   1.083290 S    
O24   C88   1.290437 A    
C23   C24   1.538743 S    
C18   C22   1.548892 S    
O8    C5    1.270612 A    
C10   H8    1.113693 S    
C53   H39   1.081938 S    
O9    C6    1.280955 A    
C24   H21   1.110526 S    
C39   C48   1.480872 S    
O7    C6    1.280123 A    
C28   C30   1.569589 S    
N1    O27   1.301114 A    
C38   C88   1.454348 S    
Zn3   O8    1.950712 S    
C50   H37   1.083020 S    
C37   C38   1.399112 A    
O13   C2    1.282874 A    
C49   H60   1.082120 S    
C55   C56   1.396852 A    
C47   C48   1.404984 A    
N3    O32   1.302126 A    
C72   N11   1.439271 S    
N7    O39   1.301128 A    
C58   C59   1.396601 A    
C45   C46   1.398270 A    
C7    H1    1.113229 S    
Zn3   O13   1.932557 S    
O17   C87   1.285192 A    
C28   C85   1.485590 S    
Zn6   O17   1.932556 S    
Zn2   O12   1.934465 S    
C82   C83   1.398465 A    
H14   C21   1.107687 S    
C35   N10   1.440017 S    
C17   C19   1.596969 S    
N5    O35   1.302436 A    
C4    C27   1.491149 S    
Zn1   O10   1.947748 S    
N6    O37   1.301585 A    
C15   H12   1.110658 S    
C67   C72   1.406380 A    
C73   C78   1.387784 A    
Zn7   O14   1.957977 S    
C20   C22   1.561454 S    
N10   O45   1.301702 A    
Zn8   O15   1.942374 S    
C32   C33   1.401810 A    
C17   C21   1.579053 S    
O2    C1    1.290983 A    
C22   H17   1.113591 S    
Zn5   O23   1.933903 S    
N4    O33   1.300105 A    
C1    C41   1.454003 S    
Zn6   O14   1.948706 S    
O10   C3    1.276292 A    
C63   H44   1.082320 S    
C26   C27   1.578363 S    
C37   H31   1.084797 S    
C13   H10   1.112654 S    
C76   C77   1.399869 A    
C14   H9    1.113137 S    
C21   H18   1.108834 S    
N9    O43   1.300770 A    
C68   H48   1.082099 S    
C79   C84   1.403298 A    
C25   N9    1.468593 S    
C47   H59   1.083062 S    
C16   C20   1.564497 S    
C18   H15   1.113270 S    
H36   C54   1.082270 S    
C16   H13   1.113943 S    
C46   H58   1.082433 S    
C35   C36   1.406507 A    
C7    C11   1.553237 S    
Zn5   O16   1.947647 S    
O21   C89   1.279762 A    
N3    O31   1.300499 A    
C15   C16   1.551230 S    
C9    C11   1.565003 S    
C67   C68   1.398054 A    
N11   O47   1.301530 A    
N4    O34   1.301389 A    
C12   C13   1.551074 S    
Zn3   O5    1.947465 S    
C20   C87   1.504785 S    
C71   C72   1.406521 A    
C26   C30   1.558842 S    
O11   C4    1.273755 A    
C6    C11   1.492971 S    
C12   C90   1.492859 S    
C45   H35   1.081136 S    
C29   H26   1.108938 S    
C43   C44   1.398030 A    
C10   C11   1.553726 S    
C82   H56   1.082497 S    
C44   H34   1.082474 S    
C50   C51   1.403330 A    
C10   C14   1.534524 S    
C73   H51   1.085149 S    
Zn4   O7    1.945094 S    
C44   C45   1.397290 A    
C31   C32   1.396743 A    
O20   C90   1.278533 A    
C62   H43   1.082052 S    
Zn7   O18   1.934363 S    
C61   C62   1.398429 A    
C15   C19   1.562575 S    
Zn7   O21   1.945935 S    
C68   C69   1.400887 A    
C37   C42   1.384377 A    
C81   C82   1.398149 A    
C18   C19   1.579063 S    
H23   C29   1.114122 S    
C64   H45   1.081095 S    
C57   C66   1.475932 S    
Zn5   O14   1.945886 S    
C51   C60   1.478079 S    
C49   C54   1.397507 A    
Zn4   O2    1.934111 S    
Zn1   O9    1.951620 S    
C15   H11   1.105760 S    
C65   H46   1.083185 S    
Zn2   O6    1.946036 S    
N5    O36   1.302123 A    
C31   C36   1.397682 A    
C20   C21   1.556003 S    
C38   C39   1.416871 A    
C75   C84   1.479069 S    
C56   C57   1.410794 A    
C51   C52   1.404054 A    
O23   C87   1.281751 A    
C70   C71   1.397648 A    
C22   H16   1.113181 S    
Zn6   O25   1.947465 S    
N1    O28   1.301264 A    
C17   N5    1.489096 S    
Zn1   O3    1.934005 S    
C33   C42   1.480030 S    
O22   C90   1.283158 A    
Zn2   O4    1.941713 S    
C7    H2    1.113139 S    
C79   C80   1.398501 A    
C34   H30   1.083139 S    
Zn3   O1    1.948706 S    
C3    C77   1.460904 S    
C61   H42   1.082747 S    
C17   N3    1.482794 S    
C69   C70   1.401191 A    
C18   N4    1.471217 S    
Zn8   O14   1.958666 S    
C71   H50   1.082347 S    
O3    C2    1.284977 A    
C80   H54   1.082425 S    
H6    C13   1.113420 S    
C76   H52   1.085062 S    
Zn4   O11   1.942377 S    
N6    O38   1.300457 A    
C67   H47   1.081977 S    
C23   H19   1.111228 S    
C30   H25   1.115815 S    
C12   C14   1.554724 S    
O19   C89   1.271555 A    
C59   C60   1.412519 A    
H5    C9    1.115370 S    
C10   H7    1.107171 S    
C16   N2    1.469884 S    
N2    O29   1.300582 A    
Zn8   O20   1.945090 S    
C52   C53   1.397612 A    
C24   C28   1.556008 S    
C8    C12   1.551567 S    
C83   C84   1.404928 A    
C43   H33   1.083168 S    
N10   O46   1.301512 A    
C34   C35   1.407671 A    
C53   C54   1.397670 A    
O15   C85   1.279126 A    
C80   C81   1.398153 A    
C79   H53   1.083066 S    
Zn6   O19   1.950567 S    
C28   C29   1.549490 S    
O25   C85   1.281153 A    
C62   C63   1.397858 A    
C63   C64   1.398352 A    
C33   C34   1.403856 A    
Zn2   O1    1.957830 S    
C23   C27   1.587643 S    
Zn4   O1    1.958666 S    
C56   C89   1.439100 S    
C40   H32   1.084879 S    
C39   C40   1.385064 A    
O12   C1    1.279684 A    
C46   C47   1.398990 A    
C8    H3    1.112894 S    
C64   C65   1.396659 A    
C74   C75   1.418201 A    
C24   H20   1.114146 S    
C81   H55   1.082327 S    
C58   H41   1.084851 S    
C25   C29   1.545294 S    
N7    O40   1.301531 A    
C26   N7    1.476918 S    
C75   C76   1.388378 A    
