data_mof_unit_pretest_1077.cif
_audit_creation_date              2012-12-10T17:32:56-0500
_audit_creation_method            fapswitch 2.2
_symmetry_space_group_name_H-M    P1
_symmetry_Int_Tables_number       1
_space_group_crystal_system       triclinic
_cell_length_a                    12.393459
_cell_length_b                    13.588614
_cell_length_c                    14.664428
_cell_angle_alpha                 94.273546
_cell_angle_beta                  108.244121
_cell_angle_gamma                 117.303879
_cell_volume                      2013.34999364

loop_
_atom_site_label
_atom_site_type_symbol
_atom_type_description
_atom_site_fract_x
_atom_site_fract_y
_atom_site_fract_z
_atom_type_partial_charge
C1    C     C_R   0.648686 0.712346 0.505033 0.897838
C2    C     C_R   0.832436 0.481874 0.914729 0.018974
C3    C     C_R   0.769126 0.484104 0.980319 0.015524
C4    C     C_R   0.936743 0.457548 0.943947 0.010910
C5    C     C_R   0.994106 0.457766 0.044346 0.042657
C6    C     C_R   0.929355 0.458893 0.107404 -0.245900
C7    C     C_R   0.813180 0.464158 0.074187 0.478045
C8    C     C_R   0.978406 0.424138 0.874285 -0.283718
C9    C     C_R   0.069939 0.388470 0.901782 0.496906
C10   C     C_R   0.129421 0.391815 0.001939 -0.116083
C11   C     C_R   0.103226 0.439792 0.075119 -0.008408
C12   C     C_R   0.618159 0.515764 0.685332 0.853779
C13   C     C_R   0.211262 0.344598 0.030218 0.478186
C14   C     C_R   0.290452 0.369127 0.130637 0.097076
C15   C     C_R   0.185873 0.466903 0.176164 -0.231903
C16   C     C_R   0.140676 0.973291 0.360239 0.230965
C17   C     C_R   0.245867 0.165551 0.460173 -0.104421
C18   C     C_R   0.704105 0.913961 0.539219 -0.363927
C19   C     C_R   0.775285 0.029399 0.540362 0.456492
C20   C     C_R   0.887466 0.067769 0.516555 0.431306
C21   C     C_R   0.918183 0.987509 0.479781 -0.125004
C22   C     C_R   0.826440 0.868177 0.459069 -0.142391
C23   C     C_R   0.344877 0.286600 0.484801 0.796552
C24   C     C_R   0.032040 0.021241 0.455855 0.066227
C25   C     C_R   0.041288 0.938668 0.398865 -0.018839
C26   C     C_R   0.955058 0.823632 0.385239 0.058865
C27   C     C_R   0.838406 0.789265 0.399180 0.499059
C28   C     C_R   0.142681 0.132582 0.492913 -0.118598
C29   C     C_R   0.242467 0.086364 0.391782 -0.220508
C30   C     C_R   0.727111 0.832286 0.499247 -0.185229
C31   C     C_R   0.250545 0.651985 0.681086 0.378638
C32   C     C_R   0.646060 0.333923 0.373493 -0.068373
C33   C     C_R   0.714076 0.290623 0.342036 0.427426
C34   C     C_R   0.373103 0.472712 0.313003 0.817528
C35   C     C_R   0.852684 0.348701 0.385510 0.120634
C36   C     C_R   0.922462 0.446612 0.469816 -0.157049
C37   C     C_R   0.844380 0.486137 0.498969 0.150593
C38   C     C_R   0.064006 0.508055 0.528434 -0.026612
C39   C     C_R   0.114507 0.582372 0.623392 -0.051776
C40   C     C_R   0.030423 0.597562 0.656658 -0.329639
C41   C     C_R   0.910264 0.575115 0.589358 0.537617
C42   C     C_R   0.159921 0.505226 0.497704 0.023526
C43   C     C_R   0.337966 0.644393 0.645151 0.265500
C44   C     C_R   0.676367 0.513452 0.788476 -0.087705
C45   C     C_R   0.285735 0.438382 0.205030 -0.195982
C46   C     C_R   0.661540 0.503932 0.948160 0.231265
C47   C     C_R   0.616118 0.516634 0.853162 -0.224156
C48   C     C_R   0.786626 0.500465 0.820372 -0.205576
Cu1   Cu    Cu3+1 0.416420 0.526630 0.522910 0.978403
Cu2   Cu    Cu3+1 0.583580 0.473370 0.477090 1.019928
H1    H     H_    0.316121 0.113150 0.359818 0.166023
H2    H     H_    0.154406 0.194155 0.550806 0.178362
H3    H     H_    0.628165 0.887437 0.568513 0.214782
H4    H     H_    0.175675 0.514003 0.232574 0.186634
H5    H     H_    0.066336 0.646252 0.731820 0.192264
H6    H     H_    0.136327 0.461113 0.425269 0.182963
H7    H     H_    0.540269 0.285265 0.344120 0.179202
H8    H     H_    0.531862 0.528594 0.829523 0.175414
H9    H     H_    0.835969 0.506280 0.770455 0.160712
H10   H     H_    0.959119 0.441197 0.178736 0.173239
H11   H     H_    0.933478 0.414786 0.795806 0.162289
N1    N     N_R   0.290690 0.566960 0.557640 -0.249258
N2    N     N_R   0.709100 0.433710 0.442970 -0.219243
O1    O     O_R   0.545970 0.684450 0.528810 -0.572337
O2    O     O_R   0.687130 0.639470 0.490120 -0.463525
O3    O     O_R   0.519670 0.535100 0.660030 -0.583751
O4    O     O_R   0.660830 0.490120 0.621340 -0.544945
O5    O     O_R   0.312870 0.360530 0.509880 -0.580129
O6    O     O_R   0.454030 0.315550 0.471190 -0.612016
O7    O     O_R   0.339170 0.509880 0.378660 -0.589260
O8    O     O_R   0.480330 0.464900 0.339970 -0.545895
O9    O     O_3   0.730368 0.428879 0.124771 -0.535289
C49   C     C_3   0.791072 0.507289 0.217875 -0.138445
H12   H     H_    0.828928 0.597053 0.211015 0.196659
H13   H     H_    0.870525 0.497508 0.269106 0.154483
H14   H     H_    0.716441 0.488516 0.250433 0.239414
O10   O     O_3   0.216004 0.274538 0.959758 -0.521302
C50   C     C_3   0.107356 0.162378 0.935015 -0.167153
H15   H     H_    0.011770 0.159225 0.900110 0.167224
H16   H     H_    0.109497 0.126971 0.001191 0.159769
H17   H     H_    0.112924 0.106017 0.880106 0.181935
I1    I     I_    0.040955 0.720052 0.415165 -0.428272
I2    I     I_    0.128734 0.870002 0.236328 -0.387925
O11   O     O_3   0.951633 0.180121 0.510834 -0.577245
C51   C     C_3   0.014211 0.257073 0.605646 -0.210342
H18   H     H_    0.043157 0.219217 0.667144 0.180377
H19   H     H_    0.951484 0.290449 0.616965 0.232867
H20   H     H_    0.106105 0.331801 0.608926 0.159297
O12   O     O_3   0.744993 0.110003 0.570685 -0.581942
C52   C     C_3   0.608056 0.065337 0.542411 -0.306231
H21   H     H_    0.575608 0.025007 0.599280 0.202692
H22   H     H_    0.548160 0.003652 0.467584 0.152658
H23   H     H_    0.588956 0.137452 0.539041 0.191457
O13   O     O_3   0.733379 0.681603 0.343772 -0.557852
C53   C     C_3   0.639768 0.693977 0.268733 -0.273215
H24   H     H_    0.683361 0.741004 0.218717 0.183595
H25   H     H_    0.596549 0.736934 0.299759 0.138469
H26   H     H_    0.557075 0.607597 0.223634 0.216726
I3    I     I_    0.543134 0.764915 0.726766 -0.328088
O14   O     O_3   0.297560 0.743290 0.760430 -0.552360
C54   C     C_3   0.327569 0.711826 0.850548 -0.299032
H27   H     H_    0.236185 0.651223 0.859553 0.145299
H28   H     H_    0.381311 0.789899 0.912837 0.220051
H29   H     H_    0.392908 0.675295 0.857518 0.167576
I4    I     I_    0.929674 0.265537 0.315979 -0.298912
O15   O     O_3   0.644030 0.195145 0.262024 -0.517128
C55   C     C_3   0.585599 0.096262 0.295002 -0.216050
H30   H     H_    0.510658 0.095223 0.321928 0.133937
H31   H     H_    0.661619 0.088295 0.353581 0.182961
H32   H     H_    0.533990 0.019872 0.231375 0.200782
O16   O     O_3   0.857637 0.637335 0.615753 -0.544107
C56   C     C_3   0.951298 0.756225 0.657796 -0.278469
H33   H     H_    0.019022 0.790947 0.618522 0.189195
H34   H     H_    0.007310 0.774091 0.738559 0.164525
H35   H     H_    0.898409 0.803996 0.652209 0.169980
I5    I     I_    0.400991 0.285267 0.157771 -0.240167
O17   O     O_3   0.094715 0.344068 0.828169 -0.575465
C57   C     C_3   0.213605 0.428403 0.824934 -0.303838
H36   H     H_    0.260186 0.385339 0.799275 0.209239
H37   H     H_    0.287501 0.490514 0.897998 0.175903
H38   H     H_    0.190746 0.474286 0.769678 0.136606
I6    I     I_    0.559175 0.525500 0.031973 -0.394996

loop_
_geom_bond_atom_site_label_1
_geom_bond_atom_site_label_2
_ccdc_geom_bond_type
C54   H27   S    
Cu1   O5    S    
C9    O17   S    
C49   H12   S    
C23   O6    A    
C53   H24   S    
C4    C8    A    
C56   H34   S    
C53   H26   S    
O10   C50   S    
C26   C27   A    
C17   C23   S    
C31   C43   A    
C48   H9    S    
C19   O12   S    
C36   C37   A    
Cu2   O6    S    
C43   I3    S    
C38   C42   A    
C3    C7    A    
C5    C6    A    
C50   H16   S    
O15   C55   S    
C17   C29   A    
C18   C19   A    
C57   H36   S    
C1    C30   S    
C18   H3    S    
C42   H6    S    
C11   C15   A    
C19   C20   A    
C8    C9    A    
C1    O2    A    
C55   H30   S    
C18   C30   A    
C9    C10   A    
C42   N1    A    
C44   C47   A    
C8    H11   S    
C26   I1    S    
Cu1   O1    S    
C21   C22   A    
Cu2   N2    S    
C55   H31   S    
C32   H7    S    
C56   H33   S    
C37   N2    A    
C14   C45   A    
C51   H19   S    
C12   O4    A    
C13   O10   S    
Cu1   O3    S    
C15   H4    S    
C6    H10   S    
C24   C25   A    
C39   C40   A    
C50   H15   S    
O9    C49   S    
C2    C48   A    
C16   C29   A    
C51   H18   S    
C12   O3    A    
C16   I2    S    
Cu2   O4    S    
C35   C36   A    
C23   O5    A    
C2    C4    A    
Cu2   O8    S    
C35   I4    S    
C52   H22   S    
C40   H5    S    
C20   C21   A    
C34   C45   S    
C31   O14   S    
O11   C51   S    
C40   C41   A    
C54   H29   S    
C22   C27   A    
C20   O11   S    
C55   H32   S    
C49   H13   S    
C1    O1    A    
C7    O9    S    
C52   H23   S    
C29   H1    S    
C51   H20   S    
C16   C25   A    
C34   O7    A    
C46   C47   A    
Cu1   N1    S    
C22   C30   A    
O16   C56   S    
C17   C28   A    
C33   O15   S    
C24   C28   A    
C32   N2    A    
C4    C5    A    
C10   C13   A    
C53   H25   S    
C5    C11   A    
C6    C7    A    
C3    C46   A    
Cu1   O7    S    
C32   C33   A    
C36   C38   A    
C2    C3    A    
C25   C26   A    
C12   C44   S    
O17   C57   S    
C47   H8    S    
C28   H2    S    
C50   H17   S    
C52   H21   S    
C38   C39   A    
C14   I5    S    
O14   C54   S    
C33   C35   A    
C31   C39   A    
C37   C41   A    
O13   C53   S    
Cu2   O2    S    
C57   H37   S    
C10   C11   A    
C49   H14   S    
C54   H28   S    
Cu1   Cu2   S    
C41   O16   S    
C21   C24   A    
C15   C45   A    
C46   I6    S    
C27   O13   S    
O12   C52   S    
C13   C14   A    
C34   O8    A    
C57   H38   S    
C56   H35   S    
C44   C48   A    
C43   N1    A    
