data_mof_unit_pretest_669.cif
_audit_creation_date              2012-12-10T17:52:37-0500
_audit_creation_method            fapswitch 2.2
_symmetry_space_group_name_H-M    P1
_symmetry_Int_Tables_number       1
_space_group_crystal_system       triclinic
_cell_length_a                    14.672088
_cell_length_b                    14.700775
_cell_length_c                    23.517604
_cell_angle_alpha                 76.469412
_cell_angle_beta                  103.059502
_cell_angle_gamma                 115.233569
_cell_volume                      4414.96502298

loop_
_atom_site_label
_atom_site_type_symbol
_atom_type_description
_atom_site_fract_x
_atom_site_fract_y
_atom_site_fract_z
_atom_type_partial_charge
C1    C     C_R   0.879908 0.312003 0.508392 0.783869
C2    C     C_R   0.119999 0.687902 0.488328 0.786061
C3    C     C_R   0.942495 0.537520 0.749735 -0.260330
C4    C     C_R   0.920126 0.464110 0.231063 -0.254913
C5    C     C_R   0.939789 0.540213 0.689585 0.427771
C6    C     C_R   0.912944 0.461651 0.289677 0.428938
C7    C     C_R   0.003217 0.504692 0.671701 -0.218256
C8    C     C_R   0.002969 0.499172 0.329539 -0.192403
C9    C     C_R   0.072021 0.473063 0.714752 -0.359110
C10   C     C_R   0.098043 0.533764 0.310818 -0.384608
C11   C     C_R   0.078988 0.476980 0.774328 0.514646
C12   C     C_R   0.105070 0.530816 0.252930 0.496673
C13   C     C_R   0.011822 0.506674 0.792056 0.185859
C14   C     C_R   0.015332 0.498053 0.212613 0.213600
C15   C     C_R   0.811946 0.204249 0.507656 -0.052463
C16   C     C_R   0.187761 0.794920 0.473157 -0.050359
C17   C     C_R   0.784701 0.026785 0.520966 -0.169990
C18   C     C_R   0.215426 0.967004 0.424460 -0.163539
C19   C     C_R   0.850344 0.128134 0.522819 -0.214068
C20   C     C_R   0.149170 0.867891 0.442745 -0.207819
C21   C     C_R   0.707527 0.178116 0.489146 -0.240550
C22   C     C_R   0.292932 0.821925 0.484613 -0.228562
C23   C     C_R   0.000446 0.501073 0.609037 0.844416
C24   C     C_R   0.000530 0.500175 0.391248 0.838259
C25   C     C_R   0.640123 0.076768 0.485108 0.046654
C26   C     C_R   0.360985 0.920163 0.464538 0.057549
C27   C     C_R   0.679435 0.999642 0.503307 0.071016
C28   C     C_R   0.321472 0.994716 0.436098 0.064861
C29   C     C_R   0.534267 0.050098 0.465628 -0.007648
C30   C     C_R   0.467475 0.946300 0.473751 0.007178
C31   C     C_R   0.508606 0.871334 0.488637 -0.308209
C32   C     C_R   0.493360 0.123059 0.435944 -0.301377
C33   C     C_R   0.613474 0.896738 0.504176 0.433528
C34   C     C_R   0.388465 0.095437 0.419787 0.416994
C35   C     C_R   0.714607 0.667042 0.400444 -0.299515
C36   C     C_R   0.286228 0.334308 0.600207 -0.325550
C37   C     C_R   0.796239 0.637358 0.416135 0.089622
C38   C     C_R   0.203089 0.361570 0.583221 0.070813
C39   C     C_R   0.715958 0.511056 0.492997 0.011904
C40   C     C_R   0.286505 0.492950 0.509204 -0.001497
C41   C     C_R   0.630130 0.537424 0.479232 -0.035236
C42   C     C_R   0.373574 0.468529 0.523991 -0.027089
C43   C     C_R   0.631469 0.617592 0.431843 0.166740
C44   C     C_R   0.371397 0.387050 0.570611 0.164339
C45   C     C_R   0.056598 0.589820 0.116219 0.621178
C46   C     C_R   0.977607 0.414187 0.889343 0.619209
C47   C     C_R   0.543954 0.487696 0.510437 0.063737
C48   C     C_R   0.460650 0.519670 0.493520 0.047897
C49   C     C_R   0.466590 0.600599 0.446233 -0.264098
C50   C     C_R   0.537970 0.406725 0.557667 -0.228761
C51   C     C_R   0.550208 0.648171 0.416120 -0.143412
C52   C     C_R   0.453483 0.357789 0.587019 -0.201876
C53   C     C_R   0.986694 0.408398 0.132173 0.547494
C54   C     C_R   0.052317 0.595685 0.874453 0.528801
C55   C     C_R   0.984413 0.406438 0.071911 -0.098866
C56   C     C_R   0.057839 0.597232 0.935144 -0.095148
C57   C     C_R   0.022434 0.500722 0.033930 -0.084859
C58   C     C_R   0.019993 0.502753 0.973042 -0.080082
C59   C     C_R   0.063456 0.593151 0.056960 -0.128650
C60   C     C_R   0.977845 0.410309 0.949836 -0.126723
C61   C     C_R   0.944542 0.314328 0.048237 -0.143068
C62   C     C_R   0.100998 0.689164 0.959353 -0.153094
C63   C     C_R   0.937022 0.316602 0.987382 0.397065
C64   C     C_R   0.109438 0.686372 0.020423 0.422369
Cu1   Cu    Cu3+1 0.081740 0.475680 0.515360 0.924686
Cu2   Cu    Cu3+1 0.918260 0.524320 0.484640 0.947695
H1    H     H_    0.816699 0.969673 0.534027 0.172335
H2    H     H_    0.183149 0.021740 0.401486 0.165938
H3    H     H_    0.460316 0.792875 0.484904 0.144281
H4    H     H_    0.541471 0.201042 0.421372 0.155878
H5    H     H_    0.551178 0.709734 0.379997 0.145653
H6    H     H_    0.452077 0.295547 0.622749 0.145830
H7    H     H_    0.280766 0.552952 0.474186 0.125784
H8    H     H_    0.722486 0.452228 0.528653 0.141309
H9    H     H_    0.136950 0.320721 0.605768 0.131263
H10   H     H_    0.860966 0.675919 0.392307 0.133911
H11   H     H_    0.716623 0.728531 0.364132 0.144100
H12   H     H_    0.283640 0.271858 0.635955 0.145427
H13   H     H_    0.407539 0.629330 0.431071 0.133264
H14   H     H_    0.597284 0.378401 0.573081 0.144667
H15   H     H_    0.890931 0.560395 0.763671 0.170215
H16   H     H_    0.851308 0.438744 0.199712 0.172845
H17   H     H_    0.121290 0.445418 0.702380 0.191860
H18   H     H_    0.167051 0.565104 0.341088 0.173509
H19   H     H_    0.320835 0.765635 0.510628 0.148993
H20   H     H_    0.679456 0.237737 0.479679 0.149395
H21   H     H_    0.067868 0.848232 0.432556 0.153959
H22   H     H_    0.931006 0.146696 0.536653 0.157724
N1    N     N_R   0.020338 0.498810 0.152239 -0.442716
N2    N     N_R   0.013775 0.505472 0.853526 -0.446892
N3    N     N_R   0.795430 0.560810 0.461550 -0.186593
N4    N     N_R   0.204570 0.439190 0.538450 -0.173851
O1    O     O_R   0.977900 0.338110 0.520250 -0.585331
O2    O     O_R   0.022100 0.661890 0.479750 -0.597840
O3    O     O_R   0.839850 0.379180 0.494310 -0.594701
O4    O     O_R   0.160150 0.620820 0.505690 -0.590285
O5    O     O_R   0.069020 0.479430 0.595090 -0.587983
O6    O     O_R   0.930980 0.520570 0.404910 -0.547753
O7    O     O_R   0.930970 0.520500 0.569150 -0.552519
O8    O     O_R   0.069030 0.479500 0.430850 -0.590792
O9    O     O_2   0.083306 0.676567 0.137692 -0.474591
O10   O     O_2   0.941851 0.327702 0.866002 -0.481994
O11   O     O_2   0.954791 0.321284 0.170736 -0.557685
O12   O     O_2   0.086492 0.683016 0.836334 -0.562832
C65   C     C_1   0.909909 0.215042 0.084693 0.397546
N5    N     N_1   0.882109 0.135507 0.113500 -0.252666
C66   C     C_1   0.136670 0.788655 0.923186 0.385625
N6    N     N_1   0.165296 0.868334 0.894602 -0.255200
O13   O     O_3   0.892823 0.225387 0.965276 -0.561390
C67   C     C_3   0.786698 0.199339 0.950707 0.088576
H23   H     H_    0.770242 0.259996 0.917184 0.146865
H24   H     H_    0.752007 0.187965 0.990693 0.118467
C68   C     C_3   0.737748 0.100122 0.924957 -0.276826
H25   H     H_    0.771179 0.110505 0.884757 0.248820
H26   H     H_    0.753890 0.039037 0.957915 0.226560
C69   C     C_3   0.622714 0.067577 0.908696 -0.930802
H27   H     H_    0.587422 0.054841 0.948509 0.258325
H28   H     H_    0.589634 0.995465 0.890100 0.261930
H29   H     H_    0.604791 0.126872 0.875036 0.261870
O14   O     O_3   0.159211 0.776369 0.044065 -0.559152
C70   C     C_3   0.266254 0.807346 0.049724 0.062949
H30   H     H_    0.300996 0.891839 0.044212 0.176501
H31   H     H_    0.290806 0.785954 0.014986 0.108580
C71   C     C_3   0.308415 0.765450 0.111071 -0.291171
H32   H     H_    0.286608 0.789525 0.145585 0.273132
H33   H     H_    0.275838 0.680953 0.117104 0.221315
C72   C     C_3   0.424217 0.803978 0.118807 -0.937323
H34   H     H_    0.447840 0.778626 0.085681 0.259758
H35   H     H_    0.452617 0.773086 0.163676 0.259490
H36   H     H_    0.459084 0.888439 0.113597 0.263600
O15   O     O_3   0.869859 0.571376 0.649440 -0.604235
C73   C     C_3   0.918184 0.674840 0.624723 0.101005
H37   H     H_    0.875383 0.686313 0.580053 0.180600
H38   H     H_    0.998263 0.696293 0.618137 0.118687
C74   C     C_3   0.914685 0.745427 0.662133 -0.377273
H39   H     H_    0.835278 0.720953 0.670114 0.233310
H40   H     H_    0.963290 0.740838 0.705501 0.241063
C75   C     C_3   0.952588 0.855689 0.631255 -0.915196
H41   H     H_    0.033296 0.882668 0.624879 0.261268
H42   H     H_    0.947093 0.904783 0.658644 0.262827
H43   H     H_    0.905512 0.862419 0.587579 0.252960
O16   O     O_3   0.817614 0.428386 0.306118 -0.594132
C76   C     C_3   0.789778 0.328317 0.338209 0.090720
H44   H     H_    0.734951 0.318266 0.367238 0.175705
H45   H     H_    0.854928 0.314309 0.367993 0.106066
C77   C     C_3   0.737513 0.249081 0.296337 -0.378036
H46   H     H_    0.674688 0.265417 0.265637 0.237802
H47   H     H_    0.793385 0.253286 0.269821 0.235618
C78   C     C_3   0.694206 0.141550 0.330554 -0.863995
H48   H     H_    0.755127 0.124322 0.362789 0.260850
H49   H     H_    0.660757 0.085576 0.299334 0.261073
H50   H     H_    0.633470 0.133662 0.354462 0.263738
O17   O     O_3   0.146804 0.444523 0.815621 -0.583710
C79   C     C_3   0.237056 0.529525 0.829440 0.053330
H51   H     H_    0.268504 0.510808 0.876178 0.175809
H52   H     H_    0.224226 0.600150 0.826624 0.151207
C80   C     C_3   0.315893 0.549654 0.790006 -0.368881
H53   H     H_    0.327769 0.478787 0.793001 0.237973
H54   H     H_    0.287699 0.572873 0.743308 0.212929
C81   C     C_3   0.417502 0.633902 0.808389 -0.895998
H55   H     H_    0.407605 0.705944 0.804856 0.260484
H56   H     H_    0.472644 0.646883 0.778873 0.258590
H57   H     H_    0.448923 0.611899 0.854587 0.258104
O18   O     O_3   0.198807 0.569839 0.233425 -0.601880
C82   C     C_3   0.253815 0.509142 0.262731 0.031192
H58   H     H_    0.212970 0.430697 0.251420 0.159835
H59   H     H_    0.265320 0.505253 0.311484 0.147091
C83   C     C_3   0.358892 0.556677 0.242984 -0.332764
H60   H     H_    0.350318 0.559387 0.194505 0.226056
H61   H     H_    0.398663 0.635837 0.252907 0.225105
C84   C     C_3   0.423606 0.496398 0.274676 -0.893123
H62   H     H_    0.432672 0.492112 0.323322 0.260458
H63   H     H_    0.500245 0.534733 0.260572 0.264074
H64   H     H_    0.387671 0.418191 0.263386 0.263649
O19   O     O_3   0.653925 0.822956 0.516458 -0.623430
C85   C     C_3   0.614708 0.746919 0.564504 0.072720
H65   H     H_    0.644237 0.687346 0.568033 0.186465
H66   H     H_    0.530460 0.707760 0.556829 0.138952
C86   C     C_3   0.650384 0.788729 0.623310 -0.393309
H67   H     H_    0.734679 0.827572 0.630123 0.232535
H68   H     H_    0.618099 0.845192 0.622280 0.216821
C87   C     C_3   0.616286 0.703453 0.675062 -0.900143
H69   H     H_    0.531842 0.665988 0.669795 0.257954
H70   H     H_    0.644064 0.735531 0.716988 0.259159
H71   H     H_    0.647699 0.645698 0.677657 0.260287
O20   O     O_3   0.352262 0.164677 0.382779 -0.607374
C88   C     C_3   0.336960 0.223767 0.416352 0.039971
H72   H     H_    0.408970 0.291262 0.424190 0.165892
H73   H     H_    0.312486 0.180523 0.459906 0.129128
C89   C     C_3   0.253364 0.258930 0.380903 -0.327850
H74   H     H_    0.273628 0.298269 0.336310 0.231223
H75   H     H_    0.180609 0.191545 0.375283 0.216094
C90   C     C_3   0.237706 0.330891 0.411279 -0.915841
H76   H     H_    0.221913 0.295237 0.457081 0.269162
H77   H     H_    0.172070 0.349055 0.386346 0.256311
H78   H     H_    0.306587 0.402745 0.412051 0.256466

loop_
_geom_bond_atom_site_label_1
_geom_bond_atom_site_label_2
_ccdc_geom_bond_type
C76   C77   S    
C23   O7    A    
C84   H62   S    
C89   H74   S    
C67   H24   S    
C13   N2    S    
C74   C75   S    
C85   H66   S    
C43   C51   A    
C74   H39   S    
C39   C41   A    
C27   C33   A    
C15   C19   A    
C84   H63   S    
C59   C64   A    
C82   H58   S    
C51   H5    S    
C60   C63   A    
C24   O6    A    
C54   O12   S    
O18   C82   S    
C35   C37   A    
C54   N2    A    
C29   C32   A    
C78   H49   S    
C30   C31   A    
C88   H73   S    
C7    C23   S    
C39   H8    S    
C58   C60   A    
C76   H44   S    
C20   H21   S    
C38   N4    A    
C80   C81   S    
C40   H7    S    
C18   C20   A    
C61   C63   A    
C22   H19   S    
C34   O20   S    
C87   H69   S    
C88   C89   S    
C62   C64   A    
C89   C90   S    
C17   C19   A    
C67   H23   S    
C80   H53   S    
C76   H45   S    
O19   C85   S    
C89   H75   S    
C73   H37   S    
C70   C71   S    
C3    H15   S    
C50   C52   A    
C66   N6    T    
C31   C33   A    
C85   H65   S    
C1    C15   S    
C56   C58   A    
C6    O16   S    
C35   C43   A    
C79   H52   S    
C3    C13   A    
C1    O3    A    
Cu2   O2    S    
C68   C69   S    
C44   C52   A    
C83   H61   S    
C28   C34   A    
C82   H59   S    
C41   C43   A    
C73   H38   S    
C42   C44   A    
C39   N3    A    
C47   C50   A    
C77   H47   S    
C38   H9    S    
C53   C55   A    
C25   C29   A    
C84   H64   S    
C54   C56   A    
C61   C65   S    
C17   H1    S    
C70   H30   S    
C37   N3    A    
C17   C27   A    
C81   H57   S    
C2    O2    A    
C18   C28   A    
C79   C80   S    
C4    C6    A    
C19   H22   S    
C78   H50   S    
C5    C7    A    
C45   O9    S    
C32   H4    S    
C62   C66   S    
C49   C51   A    
C35   H11   S    
C49   H13   S    
C87   H71   S    
C81   H56   S    
Cu2   O7    S    
C63   O13   S    
C72   H35   S    
C14   N1    S    
C29   C30   A    
C52   H6    S    
C12   O18   S    
C77   C78   S    
C46   O10   S    
C47   C48   A    
C15   C21   A    
C16   C20   A    
C90   H78   S    
C90   H77   S    
C41   C47   A    
C42   C48   A    
C40   N4    A    
C9    C11   A    
C67   C68   S    
C79   H51   S    
Cu1   N4    S    
C10   C12   A    
C9    H17   S    
C71   C72   S    
C46   N2    A    
C8    C10   A    
C83   H60   S    
C23   O5    A    
C37   H10   S    
C12   C14   A    
C26   C30   A    
C82   C83   S    
C55   C57   A    
C53   N1    A    
C56   C62   A    
C36   C44   A    
C80   H54   S    
C72   H34   S    
C45   N1    A    
O14   C70   S    
Cu1   O4    S    
C71   H33   S    
C68   H25   S    
C74   H40   S    
C21   C25   A    
C21   H20   S    
C45   C59   A    
C16   C22   A    
C46   C60   A    
C24   O8    A    
Cu1   O8    S    
C40   C42   A    
C3    C5    A    
C75   H43   S    
C50   H14   S    
C86   C87   S    
C6    C8    A    
Cu2   N3    S    
C75   H42   S    
C2    C16   S    
C25   C27   A    
C65   N5    T    
C26   C28   A    
C64   O14   S    
C69   H29   S    
C81   H55   S    
C85   C86   S    
C2    O4    A    
O17   C79   S    
C72   H36   S    
Cu1   O5    S    
C88   H72   S    
C36   H12   S    
O13   C67   S    
C36   C38   A    
C11   C13   A    
Cu2   O6    S    
C57   C58   A    
C53   O11   S    
C73   C74   S    
C48   C49   A    
C55   C61   A    
C10   H18   S    
Cu1   O1    S    
C8    C24   S    
C69   H28   S    
C69   H27   S    
C77   H46   S    
Cu1   Cu2   S    
C4    C14   A    
C33   O19   S    
C87   H70   S    
C70   H31   S    
C57   C59   A    
C75   H41   S    
C11   O17   S    
C22   C26   A    
C86   H67   S    
C7    C9    A    
C31   H3    S    
C4    H16   S    
C1    O1    A    
C90   H76   S    
C5    O15   S    
O16   C76   S    
Cu2   O3    S    
C83   C84   S    
C68   H26   S    
O20   C88   S    
C78   H48   S    
C18   H2    S    
O15   C73   S    
C32   C34   A    
C71   H32   S    
C86   H68   S    
