data_mof_unit_pretest_1100.cif
_audit_creation_date              2012-12-10T21:10:45-0500
_audit_creation_method            fapswitch 2.2
_symmetry_space_group_name_H-M    P1
_symmetry_Int_Tables_number       1
_space_group_crystal_system       triclinic
_cell_length_a                    17.602224
_cell_length_b                    16.792608
_cell_length_c                    10.665016
_cell_angle_alpha                 90.036977
_cell_angle_beta                  92.27468
_cell_angle_gamma                 90.335117
_cell_volume                      3149.90360823

loop_
_atom_site_label
_atom_site_type_symbol
_atom_type_description
_atom_site_fract_x
_atom_site_fract_y
_atom_site_fract_z
_atom_type_partial_charge
C1    C     C_R   0.353385 0.499680 0.505356 0.966005
C2    C     C_R   0.114230 0.485247 0.529153 -0.112143
C3    C     C_1   0.966878 0.480265 0.528418 0.056943
C4    C     C_1   0.034343 0.479357 0.531932 0.049221
C5    C     C_R   0.455480 0.831601 0.409558 -0.036499
C6    C     C_R   0.543243 0.832708 0.590313 -0.060315
C7    C     C_R   0.456344 0.747216 0.412008 0.194415
C8    C     C_R   0.543120 0.748281 0.588150 0.174057
C9    C     C_R   0.499089 0.875252 0.499963 0.022222
C10   C     C_1   0.498708 0.962862 0.499793 -0.048028
C11   C     C_1   0.498778 0.035584 0.499360 0.106995
C12   C     C_R   0.646850 0.500207 0.496078 0.989023
C13   C     C_R   0.508046 0.499910 0.259493 0.933074
C14   C     C_R   0.488504 0.499893 0.738522 0.912893
C15   C     C_R   0.446717 0.165976 0.424464 0.408787
C16   C     C_R   0.554390 0.165929 0.570119 0.412624
C17   C     C_R   0.445870 0.250254 0.429481 0.084663
C18   C     C_R   0.553901 0.250283 0.570116 0.088566
C19   C     C_R   0.499830 0.123116 0.498158 -0.185091
C20   C     C_R   0.545501 0.643963 0.101238 0.104200
C21   C     C_R   0.443937 0.644191 0.891818 0.093511
C22   C     C_R   0.523626 0.716901 0.045475 0.057794
C23   C     C_R   0.729925 0.499504 0.491245 -0.363754
C24   C     C_R   0.467291 0.716870 0.947769 0.067069
C25   C     C_R   0.475408 0.571663 0.938583 -0.039810
C26   C     C_R   0.512198 0.571700 0.056663 -0.009086
C27   C     C_R   0.514387 0.498954 0.123962 -0.110040
C28   C     C_R   0.473896 0.499183 0.871477 -0.134340
C29   C     C_R   0.502611 0.425645 0.060808 0.035605
C30   C     C_R   0.479659 0.426027 0.934867 0.053520
C31   C     C_R   0.851893 0.557198 0.557290 0.469434
C32   C     C_R   0.146350 0.550607 0.469572 0.444175
C33   C     C_R   0.773337 0.564409 0.539766 0.375587
C34   C     C_R   0.271257 0.497473 0.520830 -0.351257
C35   C     C_R   0.225254 0.560222 0.474683 0.355486
C36   C     C_3   0.416933 0.113330 0.233175 -0.304303
C37   C     C_3   0.670876 0.108554 0.579257 -0.322469
C38   C     C_3   0.939629 0.659454 0.545802 -0.252007
C39   C     C_3   0.092806 0.591550 0.284220 -0.298869
C40   C     C_3   0.740624 0.687418 0.471106 -0.265207
C41   C     C_3   0.248517 0.690057 0.521111 -0.245508
C42   C     C_3   0.752082 0.298273 0.380250 -0.331443
C43   C     C_3   0.257473 0.299064 0.643861 -0.303826
C44   C     C_R   0.766143 0.431684 0.443038 0.493769
C45   C     C_R   0.238538 0.431258 0.581501 0.480066
C46   C     C_R   0.845745 0.427482 0.455128 -0.375351
C47   C     C_R   0.159073 0.427378 0.587718 -0.368186
C48   C     C_R   0.887060 0.487489 0.517061 -0.125610
H1    H     H_    0.876301 0.377940 0.416658 0.173431
H2    H     H_    0.700376 0.164062 0.551288 0.155802
H3    H     H_    0.711202 0.074186 0.640367 0.190633
H4    H     H_    0.656488 0.071319 0.495159 0.147490
H5    H     H_    0.345469 0.308194 0.426277 0.230046
H6    H     H_    0.404517 0.336369 0.310602 0.225112
H7    H     H_    0.652566 0.312991 0.586764 0.224518
H8    H     H_    0.589485 0.332707 0.701070 0.226880
H9    H     H_    0.655344 0.663679 0.155606 0.168357
H10   H     H_    0.592380 0.681492 0.267726 0.215778
H11   H     H_    0.362037 0.587793 0.778781 0.183925
H12   H     H_    0.131641 0.379900 0.637900 0.174781
H13   H     H_    0.402427 0.669890 0.716073 0.211282
H14   H     H_    0.612128 0.793253 0.065205 0.178392
H15   H     H_    0.528192 0.839803 0.058230 0.216325
H16   H     H_    0.445833 0.796320 0.807928 0.187099
H17   H     H_    0.376774 0.788469 0.913448 0.205213
H18   H     H_    0.932218 0.645626 0.443604 0.140779
H19   H     H_    0.999639 0.649013 0.576543 0.219224
H20   H     H_    0.928472 0.723873 0.558179 0.169517
H21   H     H_    0.066201 0.532050 0.266657 0.152911
H22   H     H_    0.148550 0.595505 0.238792 0.192825
H23   H     H_    0.561253 0.322012 0.079013 0.188776
H24   H     H_    0.054819 0.636736 0.239614 0.185838
H25   H     H_    0.716022 0.659948 0.383580 0.149116
H26   H     H_    0.799258 0.708593 0.455292 0.154190
H27   H     H_    0.706132 0.740563 0.491247 0.170575
H28   H     H_    0.269602 0.671010 0.616099 0.146188
H29   H     H_    0.188337 0.709237 0.524425 0.193645
H30   H     H_    0.282289 0.743024 0.495360 0.162534
H31   H     H_    0.774418 0.282383 0.476085 0.144714
H32   H     H_    0.796509 0.291289 0.310036 0.171836
H33   H     H_    0.705699 0.255497 0.354929 0.182651
H34   H     H_    0.468454 0.315468 0.116696 0.165747
H35   H     H_    0.229927 0.282585 0.551546 0.154098
H36   H     H_    0.217612 0.290584 0.720946 0.164237
H37   H     H_    0.305570 0.257584 0.661314 0.193517
H38   H     H_    0.445714 0.907819 0.262980 0.199006
H39   H     H_    0.371247 0.908043 0.358923 0.209823
H40   H     H_    0.552628 0.909492 0.736510 0.212052
H41   H     H_    0.626928 0.911008 0.640224 0.203958
H42   H     H_    0.429060 0.718308 0.232643 0.194713
H43   H     H_    0.355139 0.721104 0.325491 0.219588
H44   H     H_    0.643867 0.725584 0.677888 0.228039
H45   H     H_    0.506471 0.314049 0.877686 0.179745
H46   H     H_    0.568703 0.718986 0.767854 0.180233
H47   H     H_    0.414244 0.326244 0.915177 0.186186
H48   H     H_    0.469265 0.076358 0.235253 0.146822
H49   H     H_    0.372414 0.080527 0.177276 0.190574
H50   H     H_    0.427292 0.170837 0.184713 0.161071
N1    N     N_R   0.500000 0.707230 0.500000 -0.125578
N2    N     N_3   0.435580 0.790624 0.903334 -0.477116
N3    N     N_3   0.410006 0.871571 0.314696 -0.473121
N4    N     N_3   0.588529 0.873852 0.684814 -0.475585
N5    N     N_3   0.411461 0.702750 0.321491 -0.358164
N6    N     N_3   0.587919 0.704923 0.679423 -0.352719
N7    N     N_R   0.500000 0.292770 0.500000 -0.150436
N8    N     N_3   0.517307 0.351083 0.123252 -0.419125
N9    N     N_3   0.460135 0.352634 0.871448 -0.406925
N10   N     N_3   0.384610 0.288880 0.362397 -0.426405
N11   N     N_3   0.612247 0.289099 0.644986 -0.421865
N12   N     N_3   0.605895 0.642458 0.195601 -0.447018
N13   N     N_3   0.382552 0.645126 0.798507 -0.473418
N14   N     N_3   0.556274 0.789840 0.094649 -0.476344
O1    O     O_R   0.389110 0.566570 0.499990 -0.583134
O2    O     O_3   0.606028 0.125694 0.647682 -0.575986
O3    O     O_3   0.891724 0.615834 0.624426 -0.582460
O4    O     O_3   0.100450 0.608147 0.413668 -0.626448
O5    O     O_3   0.739060 0.634502 0.574066 -0.561706
O6    O     O_3   0.257237 0.629634 0.430426 -0.584873
O7    O     O_3   0.721943 0.375955 0.375048 -0.574246
O8    O     O_3   0.286497 0.377645 0.645216 -0.581057
O9    O     O_R   0.610890 0.566570 0.500010 -0.571751
O10   O     O_R   0.389090 0.433480 0.499980 -0.605091
O11   O     O_R   0.610910 0.433480 0.500020 -0.601817
O12   O     O_R   0.500000 0.566560 0.316760 -0.606363
O13   O     O_R   0.500000 0.566560 0.683240 -0.622574
O14   O     O_R   0.499970 0.433470 0.316760 -0.610773
O15   O     O_R   0.500030 0.433470 0.683240 -0.604960
O16   O     O_3   0.390752 0.125683 0.354867 -0.580529
Zn1   Zn    Zn3+2 0.500000 0.588860 0.500000 0.972845
Zn2   Zn    Zn3+2 0.500000 0.411140 0.500000 0.968390

loop_
_geom_bond_atom_site_label_1
_geom_bond_atom_site_label_2
_ccdc_geom_bond_type
C33   O5    S    
C38   O3    S    
H41   N4    S    
C27   C29   A    
C43   H35   S    
C18   N11   S    
C6    C9    A    
C25   C28   A    
C15   C19   A    
C12   C23   S    
C11   C19   S    
C26   C27   A    
C14   O13   A    
C7    N1    A    
C8    N1    A    
C41   H29   S    
C42   H32   S    
C37   H3    S    
C42   O7    S    
O14   Zn2   S    
C3    C48   S    
C40   H25   S    
C2    C32   A    
C34   C35   A    
H15   N14   S    
C1    O10   A    
C47   H12   S    
H39   N3    S    
H10   N12   S    
C12   O9    A    
C38   H18   S    
C23   C33   A    
C30   N9    S    
H11   N13   S    
C39   H24   S    
C31   C33   A    
C36   H49   S    
C41   O6    S    
C9    C10   S    
C43   O8    S    
H34   N8    S    
C40   O5    S    
H46   N6    S    
C42   H31   S    
C7    N5    S    
H7    N11   S    
C43   H36   S    
C36   O16   S    
C42   H33   S    
C1    O1    A    
C31   O3    S    
C21   N13   S    
C44   C46   A    
C1    C34   S    
C46   C48   A    
C45   C47   A    
C5    N3    S    
N1    Zn1   S    
C43   H37   S    
C32   C35   A    
C17   N10   S    
O9    Zn1   S    
C41   H30   S    
C5    C7    A    
C37   H4    S    
H44   N6    S    
C6    C8    A    
C37   O2    S    
C44   O7    S    
C25   C26   A    
C23   C44   A    
C2    C4    S    
C5    C9    A    
C29   C30   A    
C17   N7    A    
C36   H48   S    
H9    N12   S    
C46   H1    S    
C39   H21   S    
C34   C45   A    
C32   O4    S    
C8    N6    S    
H47   N9    S    
C20   N12   S    
C13   O14   A    
C45   O8    S    
C38   H20   S    
C22   N14   S    
C15   O16   S    
O11   Zn2   S    
C22   C24   A    
C29   N8    S    
C21   C24   A    
C20   C22   A    
C3    C4    T    
H13   N13   S    
H8    N11   S    
C15   C17   A    
C21   C25   A    
C24   N2    S    
H17   N2    S    
H43   N5    S    
C16   O2    S    
H40   N4    S    
N7    Zn2   S    
C2    C47   A    
C40   H27   S    
H6    N10   S    
C31   C48   A    
C28   C30   A    
O15   Zn2   S    
H45   N9    S    
C41   H28   S    
C37   H2    S    
H5    N10   S    
C12   O11   A    
C20   C26   A    
C16   C19   A    
C39   H22   S    
C40   H26   S    
O12   Zn1   S    
C13   O12   A    
C6    N4    S    
H42   N5    S    
C18   N7    A    
C10   C11   T    
C14   O15   A    
O13   Zn1   S    
H16   N2    S    
H14   N14   S    
C38   H19   S    
C16   C18   A    
C39   O4    S    
H23   N8    S    
C13   C27   S    
C35   O6    S    
C36   H50   S    
C14   C28   S    
O1    Zn1   S    
H38   N3    S    
O10   Zn2   S    
