data_mof_unit_pretest_1825.cif
_audit_creation_date              2012-12-10T16:52:14-0500
_audit_creation_method            fapswitch 2.2
_symmetry_space_group_name_H-M    P1
_symmetry_Int_Tables_number       1
_space_group_crystal_system       triclinic
_cell_length_a                    11.056444
_cell_length_b                    10.935932
_cell_length_c                    9.726469
_cell_angle_alpha                 89.777458
_cell_angle_beta                  102.501416
_cell_angle_gamma                 90.193074
_cell_volume                      1148.1559456

loop_
_atom_site_label
_atom_site_type_symbol
_atom_type_description
_atom_site_fract_x
_atom_site_fract_y
_atom_site_fract_z
_atom_type_partial_charge
C1    C     C_R   0.498605 0.265443 0.499883 0.841305
C2    C     C_2   0.508066 0.866517 0.504016 -0.307960
C3    C     C_2   0.502865 0.067400 0.388045 -0.153239
C4    C     C_2   0.492703 0.133376 0.500888 -0.310494
C5    C     C_2   0.504339 0.402008 0.924815 -0.052774
C6    C     C_2   0.477498 0.404669 0.070072 -0.006402
C7    C     C_R   0.262991 0.500057 0.442885 0.853644
C8    C     C_R   0.501651 0.734530 0.500317 0.853534
C9    C     C_R   0.737000 0.500097 0.557094 0.866211
C10   C     C_2   0.128149 0.500190 0.410817 -0.340023
C11   C     C_2   0.067234 0.500362 0.515316 -0.151971
C12   C     C_2   0.871822 0.500239 0.589083 -0.347299
C13   C     C_2   0.932696 0.500416 0.484538 -0.136058
C14   C     C_2   0.497522 0.933409 0.386388 -0.142066
Cu1   Cu    Cu3+1 0.500020 0.500020 0.638640 0.963095
Cu2   Cu    Cu3+1 0.499980 0.499980 0.361360 0.995333
H1    H     H_    0.883206 0.500499 0.374937 0.201955
H2    H     H_    0.456652 0.573714 0.879268 0.233411
H3    H     H_    0.440979 0.321952 0.107781 0.114539
H4    H     H_    0.116714 0.500390 0.624921 0.184594
H5    H     H_    0.921623 0.500157 0.698506 0.155395
H6    H     H_    0.078372 0.500153 0.301381 0.158150
H7    H     H_    0.486319 0.889141 0.284587 0.184302
H8    H     H_    0.524162 0.907162 0.607608 0.151570
H9    H     H_    0.513580 0.112507 0.291658 0.163686
H10   H     H_    0.477136 0.092027 0.596785 0.145696
H11   H     H_    0.523060 0.314234 0.882654 0.149156
N1    N     N_2   0.498650 0.498660 0.846590 -0.264386
N2    N     N_2   0.498620 0.498630 0.152710 -0.094770
O1    O     O_R   0.500020 0.321960 0.617050 -0.592334
O2    O     O_R   0.499980 0.321920 0.382890 -0.590923
O3    O     O_R   0.320700 0.500020 0.574050 -0.582936
O4    O     O_R   0.320660 0.499980 0.339890 -0.577839
O5    O     O_R   0.500020 0.678080 0.617110 -0.581287
O6    O     O_R   0.499980 0.678040 0.382950 -0.551092
O7    O     O_R   0.679340 0.500020 0.660110 -0.562501
O8    O     O_R   0.679300 0.499980 0.425950 -0.555017
I1    I     I_    0.626437 0.633107 0.121005 -0.314203

loop_
_geom_bond_atom_site_label_1
_geom_bond_atom_site_label_2
_ccdc_geom_bond_type
C14   H7    S    
N2    I1    S    
C7    C10   S    
C4    H10   S    
C1    O2    A    
Cu2   O4    S    
C9    O7    A    
C5    N1    D    
C7    O4    A    
Cu1   O5    S    
C13   H1    S    
Cu2   O8    S    
C1    C4    S    
C9    O8    A    
Cu1   O3    S    
C8    O5    A    
C10   H6    S    
Cu2   O2    S    
C6    H3    S    
C11   C13   S    
Cu1   N1    S    
C3    C14   S    
C1    O1    A    
Cu2   O6    S    
C2    H8    S    
C5    C6    S    
C2    C14   D    
C9    C12   S    
C11   H4    S    
C10   C11   D    
Cu1   Cu2   S    
Cu1   O7    S    
C3    H9    S    
C6    N2    D    
H2    N1    S    
C12   C13   D    
Cu1   O1    S    
C7    O3    A    
Cu2   N2    S    
C5    H11   S    
C12   H5    S    
C2    C8    S    
C3    C4    D    
C8    O6    A    
