data_mof_unit_pretest_1608.cif
_audit_creation_date              2012-12-10T17:57:27-0500
_audit_creation_method            fapswitch 2.2
_symmetry_space_group_name_H-M    P1
_symmetry_Int_Tables_number       1
_space_group_crystal_system       triclinic
_cell_length_a                    30.644937
_cell_length_b                    29.369851
_cell_length_c                    31.057622
_cell_angle_alpha                 89.913803
_cell_angle_beta                  89.94777
_cell_angle_gamma                 90.048372
_cell_volume                      27952.9629455

loop_
_atom_site_label
_atom_site_type_symbol
_atom_type_description
_atom_site_fract_x
_atom_site_fract_y
_atom_site_fract_z
_atom_type_partial_charge
C1    C     C_R   0.308971 0.002327 0.690401 0.829941
C2    C     C_R   0.691149 0.003894 0.690480 0.826369
C3    C     C_R   0.808917 0.501880 0.690365 0.826643
C4    C     C_R   0.191159 0.500854 0.690260 0.835513
C5    C     C_R   0.808885 0.002144 0.190339 0.825716
C6    C     C_R   0.191148 0.000281 0.190290 0.826832
C7    C     C_R   0.308750 0.497634 0.190218 0.832582
C8    C     C_R   0.691034 0.498080 0.190366 0.831840
C9    C     C_R   0.364871 0.020363 0.582634 -0.247109
C10   C     C_R   0.635726 0.023594 0.582574 -0.245047
C11   C     C_R   0.864248 0.514873 0.581698 -0.255815
C12   C     C_R   0.139579 0.514212 0.580323 -0.288533
C13   C     C_R   0.863499 0.015559 0.081285 -0.258259
C14   C     C_R   0.139175 0.011285 0.080439 -0.281746
C15   C     C_R   0.362013 0.485550 0.080103 -0.262896
C16   C     C_R   0.636156 0.483113 0.081740 -0.251238
C17   C     C_R   0.404842 0.998911 0.591288 -0.183573
C18   C     C_R   0.596508 0.999985 0.590148 -0.158571
C19   C     C_R   0.905868 0.498888 0.592573 -0.176845
C20   C     C_R   0.097042 0.498678 0.589825 -0.152486
C21   C     C_R   0.905144 0.998966 0.091650 -0.174189
C22   C     C_R   0.096225 0.998261 0.090726 -0.153710
C23   C     C_R   0.403789 0.501440 0.090411 -0.165008
C24   C     C_R   0.594926 0.500965 0.091516 -0.177905
C25   C     C_R   0.409135 0.973599 0.628934 0.122945
C26   C     C_R   0.590865 0.977114 0.628887 0.113889
C27   C     C_R   0.912242 0.478525 0.632453 0.114810
C28   C     C_R   0.090020 0.477002 0.628985 0.116013
C29   C     C_R   0.911658 0.978763 0.131618 0.115001
C30   C     C_R   0.088787 0.977702 0.130381 0.114005
C31   C     C_R   0.409831 0.523178 0.129673 0.116657
C32   C     C_R   0.589031 0.523024 0.130702 0.118954
C33   C     C_3   0.444866 0.974623 0.661347 -0.491697
C34   C     C_3   0.554652 0.983213 0.660410 -0.497834
C35   C     C_3   0.946673 0.487776 0.665140 -0.500745
C36   C     C_3   0.054333 0.484028 0.660727 -0.496903
C37   C     C_3   0.946270 0.988438 0.163839 -0.497958
C38   C     C_3   0.053763 0.986523 0.162422 -0.500159
C39   C     C_3   0.445508 0.518098 0.161794 -0.498669
C40   C     C_3   0.554100 0.515634 0.163388 -0.496008
C41   C     C_3   0.410369 0.977407 0.696062 -0.408597
C42   C     C_3   0.588524 0.986159 0.695464 -0.406023
C43   C     C_3   0.911312 0.490811 0.698818 -0.403855
C44   C     C_3   0.088505 0.486649 0.695707 -0.409876
C45   C     C_3   0.911374 0.991930 0.197849 -0.404864
C46   C     C_3   0.088372 0.988971 0.196927 -0.405991
C47   C     C_3   0.410986 0.513863 0.196385 -0.408243
C48   C     C_3   0.588970 0.514007 0.197542 -0.408985
C49   C     C_R   0.166364 0.993240 0.883469 -0.107663
C50   C     C_R   0.831960 0.992716 0.884206 -0.091827
C51   C     C_R   0.667563 0.510676 0.883749 -0.093876
C52   C     C_R   0.334567 0.477776 0.882085 -0.163529
C53   C     C_R   0.666993 0.004348 0.384510 -0.101374
C54   C     C_R   0.331681 0.999619 0.384688 -0.090536
C55   C     C_R   0.163345 0.526605 0.379580 -0.179101
C56   C     C_R   0.831983 0.499479 0.385189 -0.036114
C57   C     C_R   0.156129 0.999722 0.840840 -0.090917
C58   C     C_R   0.843108 0.999844 0.841682 -0.082350
C59   C     C_R   0.656846 0.500820 0.841662 -0.077366
C60   C     C_R   0.343639 0.496028 0.841489 -0.045144
C61   C     C_R   0.656575 0.999597 0.341510 -0.093288
C62   C     C_R   0.343099 0.000122 0.341782 -0.083007
C63   C     C_R   0.156273 0.503148 0.341206 -0.033633
C64   C     C_R   0.842942 0.500664 0.341829 -0.079250
C65   C     C_R   0.111522 0.005873 0.830416 -0.176192
C66   C     C_R   0.887754 0.006532 0.832073 -0.190610
C67   C     C_R   0.612550 0.491890 0.832451 -0.191760
C68   C     C_R   0.386784 0.509559 0.832435 -0.172763
C69   C     C_R   0.611835 0.994764 0.330899 -0.178981
C70   C     C_R   0.388145 0.000216 0.331632 -0.190621
C71   C     C_R   0.114788 0.484029 0.333392 -0.171724
C72   C     C_R   0.887841 0.501614 0.331174 -0.189119
C73   C     C_R   0.079647 0.005902 0.863302 -0.201862
C74   C     C_R   0.918907 0.006528 0.865463 -0.165789
C75   C     C_R   0.581422 0.491689 0.865911 -0.173701
C76   C     C_R   0.418035 0.511277 0.865319 -0.198670
C77   C     C_R   0.579964 0.994607 0.363717 -0.201199
C78   C     C_R   0.419349 0.000103 0.364985 -0.166896
C79   C     C_R   0.083505 0.482746 0.366257 -0.205471
C80   C     C_R   0.919648 0.501328 0.363900 -0.173577
C81   C     C_R   0.092278 0.000312 0.906598 -0.071210
C82   C     C_R   0.905809 0.999460 0.908496 -0.054580
C83   C     C_R   0.594181 0.500957 0.908598 -0.055898
C84   C     C_R   0.406238 0.498866 0.907494 -0.017753
C85   C     C_R   0.592440 0.000284 0.406954 -0.068504
C86   C     C_R   0.405933 0.999780 0.408400 -0.052584
C87   C     C_R   0.093048 0.501525 0.406582 -0.022808
C88   C     C_R   0.906907 0.499499 0.407397 -0.066532
C89   C     C_R   0.249987 0.915429 0.750022 0.792411
C90   C     C_R   0.750025 0.084587 0.749972 0.801787
C91   C     C_R   0.749993 0.915416 0.750035 0.804221
C92   C     C_R   0.249990 0.084576 0.749991 0.804153
C93   C     C_R   0.750016 0.415427 0.749988 0.800036
C94   C     C_R   0.250029 0.584585 0.749981 0.817290
C95   C     C_R   0.250001 0.415418 0.750044 0.789756
C96   C     C_R   0.749962 0.584574 0.750024 0.802350
C97   C     C_R   0.750001 0.915428 0.250005 0.789726
C98   C     C_R   0.250026 0.084585 0.249977 0.807228
C99   C     C_R   0.249989 0.915414 0.250029 0.789214
C100  C     C_R   0.749985 0.084574 0.249995 0.807936
C101  C     C_R   0.249998 0.415426 0.250005 0.813700
C102  C     C_R   0.750015 0.584585 0.249967 0.807163
C103  C     C_R   0.749986 0.415415 0.250022 0.812556
C104  C     C_R   0.249975 0.584569 0.250014 0.794521
C105  C     C_R   0.136344 0.995270 0.915079 -0.119262
C106  C     C_R   0.861542 0.991839 0.916518 -0.225681
C107  C     C_R   0.637845 0.511907 0.916085 -0.223790
C108  C     C_R   0.365498 0.478747 0.914202 -0.144298
C109  C     C_R   0.636386 0.006208 0.415762 -0.130242
C110  C     C_R   0.361140 0.999227 0.417129 -0.231086
C111  C     C_R   0.131790 0.526264 0.411358 -0.109349
C112  C     C_R   0.862433 0.497475 0.416500 -0.204659
C113  C     C_3   0.169921 0.990083 0.949835 0.747641
C114  C     C_3   0.825465 0.986311 0.950458 0.757329
C115  C     C_3   0.673526 0.518040 0.949814 0.758689
C116  C     C_3   0.330927 0.485628 0.947977 0.783173
C117  C     C_3   0.669078 0.012959 0.451146 0.743227
C118  C     C_3   0.325001 0.000799 0.451294 0.756160
C119  C     C_3   0.165739 0.524584 0.446022 0.782849
C120  C     C_3   0.827949 0.498162 0.451709 0.761646
C121  C     C_3   0.204658 0.986984 0.912654 0.801975
C122  C     C_3   0.792698 0.985361 0.911778 0.843480
C123  C     C_3   0.706590 0.518890 0.911351 0.841303
C124  C     C_3   0.296055 0.483006 0.911927 0.802247
C125  C     C_3   0.704940 0.009566 0.414828 0.802290
C126  C     C_3   0.292034 0.000027 0.412834 0.842051
C127  C     C_3   0.201460 0.525240 0.410416 0.798637
C128  C     C_3   0.793290 0.499545 0.414658 0.818774
C129  C     C_R   0.937807 0.999924 0.942467 0.803165
C130  C     C_R   0.060592 0.000077 0.940765 0.871803
C131  C     C_R   0.438330 0.499916 0.941663 0.862490
C132  C     C_R   0.562419 0.500145 0.942758 0.820393
C133  C     C_R   0.438064 0.999993 0.442219 0.803315
C134  C     C_R   0.560644 0.000071 0.440917 0.875113
C135  C     C_R   0.939259 0.499922 0.441022 0.809918
C136  C     C_R   0.061157 0.500189 0.441023 0.870088
C137  C     C_R   0.440391 0.999890 0.560395 0.830623
C138  C     C_R   0.561443 0.000047 0.558613 0.881206
C139  C     C_R   0.941053 0.499894 0.561146 0.835246
C140  C     C_R   0.062064 0.499886 0.558000 0.876582
C141  C     C_R   0.940346 0.999907 0.060352 0.830851
C142  C     C_R   0.061345 0.999813 0.058826 0.874091
C143  C     C_R   0.439176 0.500215 0.059250 0.869457
C144  C     C_R   0.559714 0.500118 0.060285 0.831262
C145  C     C_R   0.190349 0.000145 0.808877 0.811432
C146  C     C_R   0.809533 0.000168 0.809034 0.821159
C147  C     C_R   0.690465 0.499905 0.809043 0.821730
C148  C     C_R   0.309604 0.499415 0.809131 0.818105
C149  C     C_R   0.690413 0.999800 0.309001 0.811059
C150  C     C_R   0.309561 0.000108 0.309019 0.818631
C151  C     C_R   0.190421 0.500226 0.309029 0.817368
C152  C     C_R   0.809441 0.500417 0.309127 0.833632
C153  C     C_1   0.249985 0.864160 0.750064 -0.192892
C154  C     C_1   0.750060 0.135856 0.749927 -0.176424
C155  C     C_1   0.749973 0.864144 0.750112 -0.195028
C156  C     C_1   0.249970 0.135848 0.749993 -0.178550
C157  C     C_1   0.750036 0.364156 0.749987 -0.187439
C158  C     C_1   0.250066 0.635859 0.749964 -0.179574
C159  C     C_1   0.249981 0.364151 0.750114 -0.198895
C160  C     C_1   0.749921 0.635843 0.750066 -0.186727
C161  C     C_1   0.750011 0.864158 0.250025 -0.193323
C162  C     C_1   0.250068 0.135857 0.249952 -0.178080
C163  C     C_1   0.249960 0.864141 0.250092 -0.195512
C164  C     C_1   0.749963 0.135844 0.249992 -0.177128
C165  C     C_1   0.250019 0.364156 0.250005 -0.179483
C166  C     C_1   0.750055 0.635857 0.249948 -0.187111
C167  C     C_1   0.749945 0.364144 0.250050 -0.179506
C168  C     C_1   0.249927 0.635835 0.250078 -0.202935
C169  C     C_1   0.249993 0.821648 0.750078 -0.003741
C170  C     C_1   0.750062 0.178367 0.749928 0.002656
C171  C     C_1   0.749963 0.821634 0.750144 -0.005158
C172  C     C_1   0.249968 0.178362 0.750020 0.001287
C173  C     C_1   0.750045 0.321642 0.749978 -0.001163
C174  C     C_1   0.250057 0.678371 0.749993 0.003674
C175  C     C_1   0.249978 0.321641 0.750124 -0.006909
C176  C     C_1   0.749916 0.678355 0.750108 -0.003248
C177  C     C_1   0.750019 0.821645 0.250028 -0.004633
C178  C     C_1   0.250069 0.178369 0.249963 0.003312
C179  C     C_1   0.249948 0.821629 0.250124 -0.007930
C180  C     C_1   0.749954 0.178358 0.250000 0.003211
C181  C     C_1   0.250032 0.321643 0.250000 0.004182
C182  C     C_1   0.750054 0.678369 0.249968 -0.001926
C183  C     C_1   0.749939 0.321633 0.250044 0.003716
C184  C     C_1   0.249918 0.678347 0.250125 -0.008525
C185  C     C_1   0.250014 0.771260 0.750065 0.001598
C186  C     C_1   0.750060 0.228757 0.749944 0.003951
C187  C     C_1   0.749943 0.771242 0.750154 0.000144
C188  C     C_1   0.249971 0.228752 0.750063 0.001877
C189  C     C_1   0.750053 0.271255 0.749962 0.002970
C190  C     C_1   0.250036 0.728761 0.750034 0.003796
C191  C     C_1   0.249973 0.271251 0.750100 0.000075
C192  C     C_1   0.749928 0.728745 0.750140 0.000651
C193  C     C_1   0.750032 0.771257 0.250017 -0.000374
C194  C     C_1   0.250060 0.228757 0.249979 0.005343
C195  C     C_1   0.249932 0.771237 0.250146 -0.003155
C196  C     C_1   0.749946 0.228745 0.250014 0.005157
C197  C     C_1   0.250047 0.271256 0.249992 0.005883
C198  C     C_1   0.750044 0.728758 0.249996 0.000413
C199  C     C_1   0.749940 0.271244 0.250030 0.005840
C200  C     C_1   0.249923 0.728737 0.250147 -0.003120
C201  C     C_R   0.377759 0.975793 0.660572 0.056269
C202  C     C_R   0.621834 0.980037 0.660931 0.062543
C203  C     C_R   0.880249 0.480578 0.663424 0.065453
C204  C     C_R   0.120885 0.478409 0.660922 0.053838
C205  C     C_R   0.879947 0.980983 0.162951 0.061694
C206  C     C_R   0.120015 0.978731 0.162055 0.055709
C207  C     C_R   0.378597 0.520535 0.161147 0.062555
C208  C     C_R   0.620769 0.521541 0.161930 0.059128
C209  C     C_R   0.340076 0.001262 0.655117 -0.219000
C210  C     C_R   0.660004 0.004848 0.655263 -0.200527
C211  C     C_R   0.840135 0.500153 0.655154 -0.223949
C212  C     C_R   0.161286 0.498102 0.654306 -0.203455
C213  C     C_R   0.839898 0.000851 0.155049 -0.220895
C214  C     C_R   0.160955 0.996674 0.154598 -0.207927
C215  C     C_R   0.338908 0.499389 0.154109 -0.216614
C216  C     C_R   0.660175 0.499701 0.154946 -0.221222
C217  C     C_R   0.331080 0.020251 0.613343 0.453908
C218  C     C_R   0.668962 0.025203 0.613915 0.408441
C219  C     C_R   0.830070 0.514257 0.612083 0.456402
C220  C     C_R   0.173432 0.510838 0.611146 0.424045
C221  C     C_R   0.829703 0.015166 0.111922 0.459199
C222  C     C_R   0.173086 0.007889 0.111140 0.429011
C223  C     C_R   0.327702 0.485877 0.110565 0.429572
C224  C     C_R   0.670083 0.483793 0.112244 0.456062
Cu1   Cu    Cu3+1 0.280900 0.000000 0.780900 0.986521
Cu2   Cu    Cu3+1 0.719100 0.000000 0.780900 0.979303
Cu3   Cu    Cu3+1 0.780900 0.500000 0.780900 0.973238
Cu4   Cu    Cu3+1 0.219100 0.500000 0.780900 0.920143
Cu5   Cu    Cu3+1 0.780900 0.000000 0.280900 0.985409
Cu6   Cu    Cu3+1 0.219100 0.000000 0.280900 0.978286
Cu7   Cu    Cu3+1 0.280900 0.500000 0.280900 0.919155
Cu8   Cu    Cu3+1 0.719100 0.500000 0.280900 0.936771
Cu9   Cu    Cu3+1 0.219090 0.000000 0.719100 0.922913
Cu10  Cu    Cu3+1 0.780910 0.000000 0.719100 0.918641
Cu11  Cu    Cu3+1 0.719090 0.500000 0.719100 0.924139
Cu12  Cu    Cu3+1 0.280910 0.500000 0.719100 0.937947
Cu13  Cu    Cu3+1 0.719090 0.000000 0.219100 0.925293
Cu14  Cu    Cu3+1 0.280910 0.000000 0.219100 0.936335
Cu15  Cu    Cu3+1 0.219090 0.500000 0.219100 0.919045
Cu16  Cu    Cu3+1 0.780910 0.500000 0.219100 0.926302
Cu17  Cu    Cu3+1 1.000000 0.957530 0.999990 0.955592
Cu18  Cu    Cu3+1 1.000000 0.042470 0.999990 0.947613
Cu19  Cu    Cu3+1 0.500000 0.457530 0.999990 0.949150
Cu20  Cu    Cu3+1 0.500000 0.542470 0.999990 0.951663
Cu21  Cu    Cu3+1 0.500000 0.957530 0.499990 0.953245
Cu22  Cu    Cu3+1 0.500000 0.042470 0.499990 0.949720
Cu23  Cu    Cu3+1 0.000000 0.457530 0.499990 0.956348
Cu24  Cu    Cu3+1 0.000000 0.542470 0.499990 0.955677
H1    H     H_    0.360284 0.038357 0.552546 0.212883
H2    H     H_    0.639792 0.042238 0.552811 0.221172
H3    H     H_    0.858637 0.529546 0.550567 0.228086
H4    H     H_    0.146013 0.529749 0.549457 0.225703
H5    H     H_    0.857776 0.030338 0.050020 0.210565
H6    H     H_    0.145998 0.025527 0.049319 0.227888
H7    H     H_    0.356225 0.471436 0.048704 0.233221
H8    H     H_    0.641573 0.467116 0.050932 0.207570
H9    H     H_    0.462841 0.941863 0.661980 0.194663
H10   H     H_    0.537066 0.015912 0.655397 0.193509
H11   H     H_    0.534444 0.952101 0.662959 0.197983
H12   H     H_    0.464696 0.006142 0.658868 0.194280
H13   H     H_    0.966869 0.457239 0.670193 0.196948
H14   H     H_    0.036900 0.516610 0.655443 0.196242
H15   H     H_    0.034777 0.452558 0.663209 0.195468
H16   H     H_    0.963706 0.520753 0.659641 0.196894
H17   H     H_    0.966253 0.957748 0.168869 0.195755
H18   H     H_    0.036912 0.019436 0.156705 0.196964
H19   H     H_    0.033732 0.955569 0.165959 0.195943
H20   H     H_    0.963324 0.021218 0.157659 0.197692
H21   H     H_    0.464488 0.486366 0.156997 0.194841
H22   H     H_    0.533555 0.546331 0.166484 0.195991
H23   H     H_    0.537281 0.482474 0.159034 0.195704
H24   H     H_    0.463963 0.550381 0.164626 0.195284
H25   H     H_    0.408940 0.946729 0.716940 0.197465
H26   H     H_    0.590213 0.020378 0.710846 0.203376
H27   H     H_    0.587585 0.956953 0.718245 0.198272
H28   H     H_    0.410354 0.010585 0.713366 0.205770
H29   H     H_    0.912800 0.463058 0.723241 0.196817
H30   H     H_    0.091577 0.521247 0.710045 0.204859
H31   H     H_    0.086856 0.458112 0.719108 0.197621
H32   H     H_    0.907251 0.525713 0.712128 0.203641
H33   H     H_    0.913145 0.964735 0.222641 0.198695
H34   H     H_    0.092586 0.023815 0.210414 0.204899
H35   H     H_    0.086080 0.961102 0.221066 0.197548
H36   H     H_    0.907215 0.027127 0.210518 0.203723
H37   H     H_    0.409346 0.479202 0.210820 0.203769
H38   H     H_    0.587885 0.543135 0.220210 0.197125
H39   H     H_    0.592432 0.479844 0.212760 0.204850
H40   H     H_    0.411023 0.542458 0.219687 0.197830
H41   H     H_    0.101332 0.010885 0.797389 0.160671
H42   H     H_    0.898477 0.012227 0.799264 0.158477
H43   H     H_    0.602132 0.484239 0.799983 0.159013
H44   H     H_    0.395951 0.520962 0.800428 0.155150
H45   H     H_    0.601571 0.990791 0.297821 0.160977
H46   H     H_    0.399183 0.000550 0.298519 0.159319
H47   H     H_    0.107464 0.467985 0.302872 0.152789
H48   H     H_    0.898378 0.502829 0.297955 0.160938
H49   H     H_    0.045572 0.010438 0.855053 0.128023
H50   H     H_    0.952999 0.012169 0.857690 0.124360
H51   H     H_    0.547643 0.484020 0.858548 0.130658
H52   H     H_    0.450731 0.522934 0.858324 0.130949
H53   H     H_    0.545863 0.990391 0.355317 0.127245
H54   H     H_    0.453804 0.000398 0.356792 0.122885
H55   H     H_    0.052323 0.466422 0.360532 0.133964
H56   H     H_    0.953877 0.502640 0.355263 0.127125
O1    O     O_R   0.321180 0.000000 0.731010 -0.581057
O2    O     O_R   0.678820 0.000000 0.731010 -0.579917
O3    O     O_R   0.821180 0.500000 0.731010 -0.582142
O4    O     O_R   0.178820 0.500000 0.731010 -0.583177
O5    O     O_R   0.821180 0.000000 0.231010 -0.580913
O6    O     O_R   0.178820 0.000000 0.231010 -0.585199
O7    O     O_R   0.321180 0.500000 0.231010 -0.577239
O8    O     O_R   0.678820 0.500000 0.231010 -0.583228
O9    O     O_R   0.268980 0.000000 0.678820 -0.608721
O10   O     O_R   0.731020 0.000000 0.678820 -0.619157
O11   O     O_R   0.768980 0.500000 0.678820 -0.606328
O12   O     O_R   0.231020 0.500000 0.678820 -0.585394
O13   O     O_R   0.768980 0.000000 0.178820 -0.603772
O14   O     O_R   0.231020 0.000000 0.178820 -0.586397
O15   O     O_R   0.268980 0.500000 0.178820 -0.612948
O16   O     O_R   0.731020 0.500000 0.178820 -0.603787
O17   O     O_R   0.276100 0.938030 0.776090 -0.558938
O18   O     O_R   0.723900 0.061970 0.776090 -0.563106
O19   O     O_R   0.723900 0.938030 0.776090 -0.557342
O20   O     O_R   0.276100 0.061970 0.776090 -0.560893
O21   O     O_R   0.776100 0.438030 0.776090 -0.560830
O22   O     O_R   0.223900 0.561970 0.776090 -0.564643
O23   O     O_R   0.223900 0.438030 0.776090 -0.589094
O24   O     O_R   0.776100 0.561970 0.776090 -0.561419
O25   O     O_R   0.776100 0.938030 0.276090 -0.563457
O26   O     O_R   0.223900 0.061970 0.276090 -0.561942
O27   O     O_R   0.223900 0.938030 0.276090 -0.561452
O28   O     O_R   0.776100 0.061970 0.276090 -0.557242
O29   O     O_R   0.276100 0.438030 0.276090 -0.563640
O30   O     O_R   0.723900 0.561970 0.276090 -0.560724
O31   O     O_R   0.723900 0.438030 0.276090 -0.576480
O32   O     O_R   0.276100 0.561970 0.276090 -0.590307
O33   O     O_R   0.223900 0.938040 0.723900 -0.570370
O34   O     O_R   0.776100 0.061960 0.723900 -0.578065
O35   O     O_R   0.776100 0.938040 0.723900 -0.568093
O36   O     O_R   0.223900 0.061960 0.723900 -0.570430
O37   O     O_R   0.723900 0.438040 0.723900 -0.573827
O38   O     O_R   0.276100 0.561960 0.723900 -0.557544
O39   O     O_R   0.276100 0.438040 0.723900 -0.571812
O40   O     O_R   0.723900 0.561960 0.723900 -0.566617
O41   O     O_R   0.723900 0.938040 0.223900 -0.572894
O42   O     O_R   0.276100 0.061960 0.223900 -0.560358
O43   O     O_R   0.276100 0.938040 0.223900 -0.579269
O44   O     O_R   0.723900 0.061960 0.223900 -0.567296
O45   O     O_R   0.223900 0.438040 0.223900 -0.567882
O46   O     O_R   0.776100 0.561960 0.223900 -0.572927
O47   O     O_R   0.776100 0.438040 0.223900 -0.564553
O48   O     O_R   0.223900 0.561960 0.223900 -0.566129
O49   O     O_R   0.231010 0.000000 0.821180 -0.521205
O50   O     O_R   0.768990 0.000000 0.821180 -0.526016
O51   O     O_R   0.731010 0.500000 0.821180 -0.526811
O52   O     O_R   0.268990 0.500000 0.821180 -0.564227
O53   O     O_R   0.731010 0.000000 0.321180 -0.530364
O54   O     O_R   0.268990 0.000000 0.321180 -0.526766
O55   O     O_R   0.231010 0.500000 0.321180 -0.561742
O56   O     O_R   0.768990 0.500000 0.321180 -0.558844
O57   O     O_R   0.178810 0.000000 0.768990 -0.599194
O58   O     O_R   0.821190 0.000000 0.768990 -0.597966
O59   O     O_R   0.678810 0.500000 0.768990 -0.598319
O60   O     O_R   0.321190 0.500000 0.768990 -0.594914
O61   O     O_R   0.678810 1.000000 0.268990 -0.596379
O62   O     O_R   0.321190 1.000000 0.268990 -0.598843
O63   O     O_R   0.178810 0.500000 0.268990 -0.594446
O64   O     O_R   0.821190 0.500000 0.268990 -0.595498
O65   O     O_R   0.954900 0.964110 0.954900 -0.601408
O66   O     O_R   0.045100 0.035890 0.954900 -0.599198
O67   O     O_R   0.045100 0.964110 0.954900 -0.567767
O68   O     O_R   0.954900 0.035890 0.954900 -0.592087
O69   O     O_R   0.454900 0.464110 0.954900 -0.598559
O70   O     O_R   0.545100 0.535890 0.954900 -0.605088
O71   O     O_R   0.545100 0.464110 0.954900 -0.585656
O72   O     O_R   0.454900 0.535890 0.954900 -0.570747
O73   O     O_R   0.454900 0.964110 0.454900 -0.598958
O74   O     O_R   0.545100 0.035890 0.454900 -0.598157
O75   O     O_R   0.545100 0.964110 0.454900 -0.576772
O76   O     O_R   0.454900 0.035890 0.454900 -0.594798
O77   O     O_R   0.954900 0.464110 0.454900 -0.601173
O78   O     O_R   0.045100 0.535890 0.454900 -0.590315
O79   O     O_R   0.045100 0.464110 0.454900 -0.577054
O80   O     O_R   0.954900 0.535890 0.454900 -0.597514
O81   O     O_R   0.454900 0.964130 0.545070 -0.597527
O82   O     O_R   0.545100 0.035870 0.545070 -0.587028
O83   O     O_R   0.545100 0.964130 0.545070 -0.578855
O84   O     O_R   0.454900 0.035870 0.545070 -0.585837
O85   O     O_R   0.954900 0.464130 0.545070 -0.598992
O86   O     O_R   0.045100 0.535870 0.545070 -0.583255
O87   O     O_R   0.045100 0.464130 0.545070 -0.581823
O88   O     O_R   0.954900 0.535870 0.545070 -0.583383
O89   O     O_R   0.954900 0.964130 0.045070 -0.600844
O90   O     O_R   0.045100 0.035870 0.045070 -0.588827
O91   O     O_R   0.045100 0.964130 0.045070 -0.575850
O92   O     O_R   0.954900 0.035870 0.045070 -0.585422
O93   O     O_R   0.454900 0.464130 0.045070 -0.588753
O94   O     O_R   0.545100 0.535870 0.045070 -0.602786
O95   O     O_R   0.545100 0.464130 0.045070 -0.584468
O96   O     O_R   0.454900 0.535870 0.045070 -0.579208
O97   O     O_3   0.294614 0.047018 0.604702 -0.576776
C225  C     C_3   0.256639 0.020436 0.596733 0.149916
H57   H     H_    0.230976 0.031878 0.619805 0.183667
H58   H     H_    0.261271 0.982960 0.600991 0.132823
C226  C     C_3   0.237906 0.029059 0.552252 -0.809968
H59   H     H_    0.254539 0.006827 0.528652 0.280077
H60   H     H_    0.202526 0.020339 0.552296 0.184421
H61   H     H_    0.241337 0.065417 0.542988 0.273239
O98   O     O_3   0.703125 0.056021 0.606600 -0.580421
C227  C     C_3   0.744610 0.034791 0.601505 0.135790
H62   H     H_    0.742956 0.996807 0.599470 0.123547
H63   H     H_    0.764993 0.044625 0.629617 0.205868
C228  C     C_3   0.770085 0.053232 0.562768 -0.891494
H64   H     H_    0.752569 0.081562 0.546906 0.288177
H65   H     H_    0.802784 0.065601 0.573123 0.220299
H66   H     H_    0.776470 0.025524 0.539350 0.201056
O99   O     O_3   0.791644 0.536493 0.600881 -0.570171
C229  C     C_3   0.755666 0.506299 0.596217 0.157950
H67   H     H_    0.728982 0.518771 0.617557 0.185779
H68   H     H_    0.762909 0.470340 0.604442 0.131496
C230  C     C_3   0.736583 0.508112 0.551414 -0.849174
H69   H     H_    0.757466 0.488129 0.529446 0.286826
H70   H     H_    0.703386 0.492630 0.551805 0.191656
H71   H     H_    0.733464 0.543983 0.540540 0.260396
O100  O     O_3   0.214740 0.528784 0.600737 -0.557908
C231  C     C_3   0.246171 0.494125 0.591659 0.134789
H72   H     H_    0.231584 0.460576 0.583898 0.089106
H73   H     H_    0.267942 0.488422 0.619493 0.196854
C232  C     C_3   0.278406 0.509047 0.556426 -0.868734
H74   H     H_    0.269200 0.542212 0.542107 0.283665
H75   H     H_    0.312168 0.512483 0.569489 0.219831
H76   H     H_    0.280233 0.482627 0.530962 0.195037
O101  O     O_3   0.791448 0.038270 0.101377 -0.574147
C233  C     C_3   0.755608 0.008250 0.095020 0.151167
H77   H     H_    0.728684 0.019772 0.116645 0.182017
H78   H     H_    0.762603 0.971788 0.102610 0.127240
C234  C     C_3   0.737341 0.011511 0.049719 -0.808061
H79   H     H_    0.756102 0.988915 0.028167 0.282077
H80   H     H_    0.702737 0.999930 0.049856 0.181755
H81   H     H_    0.738255 0.047206 0.037873 0.275044
O102  O     O_3   0.214525 0.024374 0.100130 -0.558116
C235  C     C_3   0.245443 0.988880 0.092687 0.144619
H82   H     H_    0.230693 0.954858 0.088808 0.084148
H83   H     H_    0.268452 0.986232 0.119874 0.194587
C236  C     C_3   0.275422 0.000603 0.054837 -0.859818
H84   H     H_    0.266923 0.033805 0.040398 0.285460
H85   H     H_    0.310179 0.002223 0.065384 0.211141
H86   H     H_    0.274098 0.973266 0.030451 0.196293
O103  O     O_3   0.289283 0.462974 0.098781 -0.567121
C237  C     C_3   0.251380 0.491276 0.097666 0.162081
H87   H     H_    0.258526 0.528194 0.103075 0.116547
H88   H     H_    0.228754 0.478883 0.123128 0.200275
C238  C     C_3   0.223885 0.485651 0.057007 -0.877893
H89   H     H_    0.236992 0.458778 0.035656 0.299114
H90   H     H_    0.189653 0.476499 0.065472 0.212332
H91   H     H_    0.221229 0.518836 0.040036 0.195200
O104  O     O_3   0.707870 0.459486 0.102234 -0.576260
C239  C     C_3   0.744424 0.488440 0.095232 0.154194
H92   H     H_    0.770942 0.476853 0.117252 0.182015
H93   H     H_    0.738219 0.525292 0.101826 0.128333
C240  C     C_3   0.762957 0.483613 0.050081 -0.813572
H94   H     H_    0.744647 0.505596 0.027599 0.282380
H95   H     H_    0.797655 0.494944 0.050008 0.183027
H96   H     H_    0.761923 0.447568 0.039328 0.269587
O105  O     O_3   0.174751 0.027823 0.978802 -0.623228
C241  C     C_3   0.165109 0.071617 0.961952 -0.340841
H97   H     H_    0.133772 0.073479 0.944349 0.166670
H98   H     H_    0.192180 0.084953 0.941973 0.216082
H99   H     H_    0.161690 0.095379 0.989495 0.191635
O106  O     O_3   0.824120 0.944212 0.972682 -0.614604
C242  C     C_3   0.864422 0.933755 0.991850 -0.287107
H100  H     H_    0.880971 0.964352 0.004713 0.170445
H101  H     H_    0.885464 0.915873 0.968157 0.173942
H102  H     H_    0.858655 0.910097 0.019138 0.184318
O107  O     O_3   0.817836 0.023209 0.979521 -0.595891
C243  C     C_3   0.834308 0.066042 0.965937 -0.348600
H103  H     H_    0.817416 0.078654 0.936408 0.212116
H104  H     H_    0.870385 0.065429 0.961115 0.165280
H105  H     H_    0.827973 0.091234 0.992115 0.199605
O108  O     O_3   0.161297 0.948616 0.971724 -0.603953
C244  C     C_3   0.193999 0.938872 0.002045 -0.309643
H106  H     H_    0.197142 0.966869 0.025353 0.217527
H107  H     H_    0.225756 0.931552 0.986467 0.185879
H108  H     H_    0.184358 0.908097 0.020494 0.177959
O109  O     O_3   0.674044 0.560600 0.971303 -0.611806
C245  C     C_3   0.634225 0.569417 0.992067 -0.273278
H109  H     H_    0.619533 0.538318 0.006150 0.175834
H110  H     H_    0.611464 0.585937 0.969111 0.172612
H111  H     H_    0.640107 0.593737 0.018729 0.181267
O110  O     O_3   0.327453 0.450700 0.980143 -0.605495
C246  C     C_3   0.339988 0.406450 0.966670 -0.287003
H112  H     H_    0.338121 0.400142 0.931627 0.158120
H113  H     H_    0.317467 0.381385 0.982012 0.205530
H114  H     H_    0.373611 0.399127 0.978176 0.171415
O111  O     O_3   0.335894 0.529521 0.966772 -0.595321
C247  C     C_3   0.300507 0.540377 0.993845 -0.217521
H115  H     H_    0.275848 0.512995 0.996121 0.176150
H116  H     H_    0.283738 0.571232 0.981422 0.177198
H117  H     H_    0.312553 0.547943 0.026746 0.168837
O112  O     O_3   0.679606 0.481689 0.980137 -0.606629
C248  C     C_3   0.672693 0.436728 0.964758 -0.322744
H118  H     H_    0.704009 0.421207 0.954750 0.218960
H119  H     H_    0.648388 0.433201 0.938695 0.162262
H120  H     H_    0.660395 0.415756 0.991890 0.180799
O113  O     O_3   0.666513 0.055546 0.473927 -0.614638
C249  C     C_3   0.649625 0.092928 0.450458 -0.327279
H121  H     H_    0.616627 0.086344 0.437147 0.173539
H122  H     H_    0.672158 0.104425 0.424693 0.207636
H123  H     H_    0.645892 0.121971 0.472975 0.192084
O114  O     O_3   0.319281 0.961137 0.476943 -0.610707
C250  C     C_3   0.359132 0.945061 0.493518 -0.301431
H124  H     H_    0.380511 0.973342 0.504063 0.166834
H125  H     H_    0.375862 0.923649 0.469018 0.168721
H126  H     H_    0.352314 0.923294 0.521915 0.187736
O115  O     O_3   0.321278 0.040887 0.477374 -0.590774
C251  C     C_3   0.342656 0.079903 0.460776 -0.342765
H127  H     H_    0.330462 0.089448 0.428476 0.205349
H128  H     H_    0.378562 0.075182 0.460142 0.174410
H129  H     H_    0.335999 0.108885 0.482770 0.198340
O116  O     O_3   0.667016 0.975134 0.479548 -0.607276
C252  C     C_3   0.701424 0.976085 0.509653 -0.327436
H130  H     H_    0.705468 0.010089 0.524158 0.219068
H131  H     H_    0.732579 0.964681 0.495185 0.193322
H132  H     H_    0.693561 0.952296 0.536312 0.181322
O117  O     O_3   0.163756 0.562584 0.475143 -0.612718
C253  C     C_3   0.160744 0.606456 0.455967 -0.271413
H133  H     H_    0.151906 0.607157 0.421392 0.144492
H134  H     H_    0.192308 0.624584 0.459974 0.212455
H135  H     H_    0.135678 0.626476 0.473484 0.175365
O118  O     O_3   0.822374 0.456875 0.475124 -0.583039
C254  C     C_3   0.862119 0.438923 0.489936 -0.247858
H136  H     H_    0.883425 0.465784 0.503241 0.162643
H137  H     H_    0.878728 0.420191 0.463573 0.176663
H138  H     H_    0.855298 0.414158 0.516037 0.179182
O119  O     O_3   0.827174 0.536481 0.479928 -0.609189
C255  C     C_3   0.846992 0.576411 0.463502 -0.394429
H139  H     H_    0.832674 0.587301 0.432321 0.202885
H140  H     H_    0.882700 0.572415 0.460287 0.191884
H141  H     H_    0.841837 0.604422 0.486876 0.202224
O120  O     O_3   0.161821 0.482423 0.468119 -0.596424
C256  C     C_3   0.196218 0.476042 0.497378 -0.273721
H142  H     H_    0.209924 0.508458 0.509452 0.211561
H143  H     H_    0.222404 0.455137 0.482893 0.186939
H144  H     H_    0.183789 0.456469 0.525361 0.172901
O121  O     O_3   0.232458 0.025341 0.908430 -0.598369
C257  C     C_3   0.269028 0.021647 0.935573 -0.247361
H145  H     H_    0.292631 0.996337 0.922798 0.194465
H146  H     H_    0.259330 0.012808 0.968779 0.166272
H147  H     H_    0.285767 0.055130 0.936721 0.166429
O122  O     O_3   0.769449 0.943639 0.903359 -0.592833
C258  C     C_3   0.794748 0.903867 0.896356 -0.297406
H148  H     H_    0.796342 0.883482 0.926308 0.215311
H149  H     H_    0.828157 0.909667 0.883919 0.142624
H150  H     H_    0.777698 0.882552 0.872186 0.178492
O123  O     O_3   0.765309 0.024218 0.909417 -0.609104
C259  C     C_3   0.724318 0.015922 0.928803 -0.189316
H151  H     H_    0.727055 0.996029 0.959151 0.164809
H152  H     H_    0.702657 0.997801 0.905819 0.183082
H153  H     H_    0.708960 0.049063 0.936633 0.155727
O124  O     O_3   0.228139 0.944885 0.909192 -0.607279
C260  C     C_3   0.204828 0.908474 0.890187 -0.323024
H154  H     H_    0.198534 0.915033 0.855552 0.158063
H155  H     H_    0.173980 0.901039 0.907509 0.198365
H156  H     H_    0.225398 0.877459 0.892010 0.191994
O125  O     O_3   0.729116 0.560892 0.902327 -0.595485
C261  C     C_3   0.703011 0.600167 0.895231 -0.290498
H157  H     H_    0.706010 0.623214 0.923333 0.212588
H158  H     H_    0.667911 0.593965 0.889171 0.146577
H159  H     H_    0.716129 0.618655 0.866843 0.173868
O126  O     O_3   0.268479 0.443932 0.918251 -0.619325
C262  C     C_3   0.259083 0.419652 0.880212 -0.329021
H160  H     H_    0.288365 0.411763 0.860573 0.141512
H161  H     H_    0.233853 0.437256 0.860970 0.208017
H162  H     H_    0.244987 0.386264 0.889612 0.184823
O127  O     O_3   0.273977 0.525239 0.905051 -0.587507
C263  C     C_3   0.228733 0.523259 0.913501 -0.227426
H163  H     H_    0.221080 0.506516 0.944791 0.156293
H164  H     H_    0.211183 0.506105 0.886877 0.178608
H165  H     H_    0.215898 0.558543 0.915227 0.155011
O128  O     O_3   0.734668 0.480500 0.909550 -0.612841
C264  C     C_3   0.776324 0.490551 0.926363 -0.206935
H166  H     H_    0.774583 0.510609 0.956665 0.164532
H167  H     H_    0.796111 0.509067 0.901951 0.190744
H168  H     H_    0.793332 0.458115 0.933607 0.151546
O129  O     O_3   0.727045 0.050873 0.405599 -0.603042
C265  C     C_3   0.761938 0.057863 0.434475 -0.243347
H169  H     H_    0.789540 0.034691 0.426956 0.193324
H170  H     H_    0.751717 0.053800 0.468534 0.162836
H171  H     H_    0.773901 0.093282 0.430493 0.170728
O130  O     O_3   0.263882 0.961002 0.408641 -0.589603
C266  C     C_3   0.284316 0.917813 0.403921 -0.290310
H172  H     H_    0.285308 0.899964 0.435371 0.211576
H173  H     H_    0.317442 0.918243 0.389558 0.137787
H174  H     H_    0.263723 0.896701 0.382343 0.179003
O131  O     O_3   0.269458 0.041724 0.406367 -0.611009
C267  C     C_3   0.228486 0.041415 0.427442 -0.186540
H175  H     H_    0.230392 0.027380 0.460820 0.164562
H176  H     H_    0.204245 0.021630 0.408081 0.183299
H177  H     H_    0.216722 0.077171 0.429806 0.158734
O132  O     O_3   0.734495 0.971826 0.417495 -0.604286
C268  C     C_3   0.717020 0.928985 0.405518 -0.325307
H178  H     H_    0.709866 0.927625 0.370549 0.166930
H179  H     H_    0.687658 0.919901 0.424528 0.198181
H180  H     H_    0.742069 0.902574 0.411976 0.189035
O133  O     O_3   0.228189 0.565094 0.413525 -0.638010
C269  C     C_3   0.239917 0.584318 0.373480 -0.322609
H181  H     H_    0.212078 0.588223 0.351004 0.144074
H182  H     H_    0.267043 0.565202 0.358592 0.210394
H183  H     H_    0.252483 0.619189 0.379448 0.178684
O134  O     O_3   0.770192 0.457427 0.409733 -0.584779
C270  C     C_3   0.725000 0.461229 0.400961 -0.207520
H184  H     H_    0.716364 0.490128 0.379874 0.201131
H185  H     H_    0.706309 0.462528 0.431488 0.135613
H186  H     H_    0.714584 0.429818 0.384002 0.169596
O135  O     O_3   0.768881 0.540612 0.409604 -0.624341
C271  C     C_3   0.742074 0.549915 0.445628 -0.326174
H187  H     H_    0.755592 0.578855 0.464231 0.214514
H188  H     H_    0.737575 0.520547 0.467233 0.174295
H189  H     H_    0.709250 0.560198 0.434066 0.167086
O136  O     O_3   0.224349 0.482975 0.406871 -0.582475
C272  C     C_3   0.269449 0.486084 0.415622 -0.239638
H190  H     H_    0.276755 0.507330 0.444393 0.164381
H191  H     H_    0.287491 0.498441 0.386981 0.178614
H192  H     H_    0.281956 0.451352 0.422438 0.154229

loop_
_geom_bond_atom_site_label_1
_geom_bond_atom_site_label_2
_ccdc_geom_bond_type
C57   C145  S    
C257  H147  S    
C51   C123  S    
O104  C239  S    
O111  C247  S    
C34   C42   S    
C255  H141  S    
O108  C244  S    
C4    O12   A    
C243  H104  S    
Cu21  O75   S    
C5    O13   A    
C185  C190  T    
C179  C195  S    
C234  H79   S    
C259  H151  S    
C130  O66   A    
C7    O15   A    
C177  C193  S    
C64   C152  S    
C188  C191  T    
C95   O23   A    
C86   C110  A    
Cu16  O64   S    
C251  H129  S    
C44   H31   S    
Cu10  O34   S    
C67   H43   S    
C144  O95   A    
O136  C272  S    
C154  C170  T    
C40   C48   S    
O118  C254  S    
O100  C231  S    
Cu1   O17   S    
C24   C32   A    
C244  H107  S    
C146  O50   A    
C148  O60   A    
Cu12  O12   S    
Cu23  O87   S    
Cu7   O29   S    
Cu13  O13   S    
O128  C264  S    
C94   O22   A    
C141  O89   A    
Cu19  Cu20  S    
C2    O10   A    
Cu22  O82   S    
C118  O114  S    
C208  C216  A    
C90   O18   A    
C220  O100  S    
C91   O35   A    
C121  O121  S    
C206  C214  A    
C240  H95   S    
C113  O105  S    
C228  H65   S    
Cu21  Cu22  S    
C89   O17   A    
C246  H113  S    
C23   C143  S    
C204  C212  A    
C79   C87   A    
C271  H187  S    
C98   C162  S    
C259  H152  S    
C258  H150  S    
Cu24  O78   S    
Cu12  O39   S    
C115  C123  S    
C73   H49   S    
C115  O112  S    
C267  H175  S    
Cu10  O10   S    
C137  O84   A    
C116  O110  S    
C112  C120  S    
C212  C220  A    
C269  H183  S    
C27   C35   S    
C249  H121  S    
C21   C29   A    
C247  H117  S    
C151  O55   A    
C23   C31   A    
C35   H16   S    
C238  H91   S    
C236  H84   S    
C263  H165  S    
C31   C207  A    
C135  O80   A    
C178  C194  S    
C5    C213  S    
C12   C20   A    
Cu19  O93   S    
C66   H42   S    
C13   C21   A    
O129  C265  S    
C71   H47   S    
C255  H139  S    
C269  H182  S    
C72   H48   S    
C116  O111  S    
C129  O65   A    
C126  O130  S    
O124  C260  S    
C270  H185  S    
C176  C192  S    
C63   C71   A    
Cu13  O61   S    
C36   C44   S    
O110  C246  S    
Cu5   Cu13  S    
O107  C243  S    
C32   C40   S    
C41   H25   S    
C93   O21   A    
C39   C47   S    
C234  H81   S    
C53   C109  A    
C78   H54   S    
C89   O33   A    
C62   C150  S    
C55   C111  A    
C117  O116  S    
C87   C136  S    
C88   C135  S    
C251  H127  S    
C8    C216  S    
Cu5   O28   S    
Cu3   O24   S    
C122  O122  S    
C40   H22   S    
Cu2   O2    S    
C17   C25   A    
C263  H163  S    
C209  C217  A    
C80   C88   A    
Cu22  O76   S    
C272  H190  S    
C52   C124  S    
C35   H13   S    
Cu23  O85   S    
C10   C18   A    
C136  O78   A    
C98   O26   A    
Cu20  O96   S    
C8    O8    A    
C139  O85   A    
C264  H166  S    
Cu14  O42   S    
Cu3   O51   S    
C42   H26   S    
Cu4   O23   S    
O132  C268  S    
C136  O79   A    
C51   C107  A    
C241  H97   S    
C101  O45   A    
C96   O24   A    
C17   C137  S    
C60   C148  S    
C103  O47   A    
C268  H178  S    
C143  O93   A    
C61   C149  S    
C171  C187  S    
C12   C220  A    
C271  H189  S    
C142  O90   A    
C97   O25   A    
C140  O87   A    
C59   C147  S    
C149  O61   A    
C103  C167  S    
C230  H69   S    
C92   O36   A    
C236  H86   S    
C69   C77   A    
C166  C182  T    
C267  H177  S    
C181  C197  S    
C71   C79   A    
O97   C225  S    
C223  O103  S    
C15   H7    S    
O125  C261  S    
C124  O126  S    
C100  O28   A    
C62   C70   A    
O109  C245  S    
Cu9   O36   S    
C265  H170  S    
C95   C159  S    
C105  C113  S    
Cu17  O91   S    
C254  H137  S    
C255  H140  S    
C25   C201  A    
C47   H40   S    
C242  H101  S    
O122  C258  S    
C48   H39   S    
C94   O38   A    
C237  C238  S    
C66   C74   A    
C49   C57   A    
O112  C248  S    
C54   C110  A    
C245  H111  S    
C111  C119  S    
Cu17  Cu18  S    
Cu8   O31   S    
C90   O34   A    
C52   C60   A    
C59   C67   A    
C53   C61   A    
C104  O48   A    
C124  O127  S    
C44   H30   S    
C184  C200  S    
C265  H171  S    
Cu23  O79   S    
Cu22  O84   S    
C144  O94   A    
C56   C64   A    
C32   C208  A    
C214  C222  A    
C152  O64   A    
C85   C134  S    
C6    O14   A    
C56   C128  S    
Cu6   O26   S    
C250  H126  S    
C77   C85   A    
C102  C166  S    
C248  H118  S    
C133  O76   A    
C203  C211  A    
C127  O136  S    
C245  H109  S    
C213  C221  A    
C196  C199  T    
C119  O117  S    
C201  C209  A    
C158  C174  T    
O105  C241  S    
C229  H68   S    
C3    C211  S    
C81   C105  A    
C239  H92   S    
C1    C209  S    
C36   H15   S    
C102  O46   A    
Cu22  O74   S    
C226  H61   S    
O106  C242  S    
C131  O69   A    
C260  H155  S    
C1    O1    A    
C156  C172  T    
Cu12  O38   S    
C10   H2    S    
C37   H20   S    
C3    O11   A    
C264  H168  S    
C38   H19   S    
Cu12  O60   S    
C132  O71   A    
C256  H142  S    
C137  O81   A    
C229  C230  S    
O131  C267  S    
C43   H29   S    
C114  O107  S    
C49   C121  S    
C22   C142  S    
C138  O82   A    
C244  H106  S    
C227  H62   S    
C82   C129  S    
C252  H131  S    
C28   C36   S    
C187  C192  T    
C53   C125  S    
C134  O75   A    
C4    O4    A    
C99   C163  S    
C5    O5    A    
Cu18  O66   S    
C55   C127  S    
C230  H71   S    
C97   C161  S    
C163  C179  T    
C46   H34   S    
C253  H134  S    
C74   H50   S    
C67   C75   A    
C33   H9    S    
O115  C251  S    
C11   C219  A    
Cu2   O18   S    
C225  H57   S    
Cu15  O45   S    
C232  H76   S    
C9    C217  A    
C46   C206  S    
C261  H157  S    
C219  O99   S    
C262  H162  S    
Cu10  O58   S    
Cu20  O72   S    
C13   C221  A    
C180  C196  S    
C266  H174  S    
C146  O58   A    
C68   C76   A    
C211  C219  A    
C130  O67   A    
Cu24  O86   S    
Cu2   Cu10  S    
C222  O102  S    
C14   C22   A    
O98   C227  S    
C72   C80   A    
Cu13  O44   S    
Cu5   O25   S    
C88   C112  A    
C217  O97   S    
C100  O44   A    
C125  O129  S    
C101  O29   A    
Cu10  O35   S    
Cu23  O77   S    
C103  O31   A    
Cu19  O71   S    
C82   C106  A    
C75   H51   S    
C161  C177  T    
C97   O41   A    
C162  C178  T    
C42   C202  S    
Cu6   O54   S    
O127  C263  S    
C113  C121  S    
Cu7   O32   S    
O103  C237  S    
C248  H120  S    
C157  C173  T    
C44   C204  S    
C138  O83   A    
Cu24  O88   S    
C235  H82   S    
C117  C125  S    
Cu15  O63   S    
C250  H124  S    
C25   C33   S    
C261  H159  S    
Cu4   O22   S    
Cu1   O49   S    
Cu24  O80   S    
C113  O108  S    
Cu3   O3    S    
C228  H64   S    
Cu18  O92   S    
C151  O63   A    
Cu18  O68   S    
C50   C122  S    
C76   C84   A    
C271  H188  S    
C233  H77   S    
C109  C117  S    
C258  H149  S    
C140  O86   A    
C54   C126  S    
C11   C19   A    
O133  C269  S    
O120  C256  S    
C267  H176  S    
C229  H67   S    
C256  H144  S    
C85   C109  A    
C104  O32   A    
C261  H158  S    
C120  C128  S    
Cu19  O95   S    
C240  H96   S    
C87   C111  A    
C231  H72   S    
C127  O133  S    
C249  H122  S    
C193  C198  T    
C244  H108  S    
Cu9   O33   S    
C34   H10   S    
C257  H145  S    
C73   C81   A    
C238  H90   S    
C48   H38   S    
C99   O43   A    
Cu11  O37   S    
C120  O118  S    
C119  O120  S    
Cu8   O30   S    
C90   C154  S    
C91   O19   A    
C164  C180  T    
C249  H123  S    
C234  H80   S    
C205  C213  A    
C262  H160  S    
C94   C158  S    
C45   H36   S    
C102  O30   A    
Cu16  O46   S    
C74   C82   A    
C243  H103  S    
C247  H116  S    
C2    C210  S    
C98   O42   A    
C115  O109  S    
C50   C58   A    
C133  O73   A    
C251  H128  S    
C49   C105  A    
C194  C197  T    
C54   C62   A    
O126  C262  S    
C232  H74   S    
C13   H5    S    
C96   O40   A    
C150  O62   A    
C263  H164  S    
O123  C259  S    
Cu15  O15   S    
Cu16  O16   S    
C86   C133  S    
Cu1   O1    S    
C6    C214  S    
C7    O7    A    
C260  H156  S    
C149  O53   A    
C170  C186  S    
C207  C215  A    
C100  C164  S    
Cu17  O89   S    
C37   H17   S    
C139  O88   A    
C245  H110  S    
Cu14  O43   S    
C63   C151  S    
C174  C190  S    
Cu7   O7    S    
C42   H27   S    
Cu8   O8    S    
C18   C138  S    
C228  H66   S    
C241  H98   S    
Cu18  O90   S    
C246  H114  S    
C27   C203  A    
C41   C201  S    
C143  O96   A    
Cu4   O4    S    
C93   O37   A    
C79   H55   S    
C272  H192  S    
C95   O39   A    
C142  O91   A    
C80   H56   S    
C65   H41   S    
C45   C205  S    
C116  C124  S    
Cu11  O40   S    
C57   C65   A    
C148  O52   A    
C226  H59   S    
C29   C205  A    
Cu14  O62   S    
C47   C207  S    
C241  H99   S    
C20   C28   A    
C14   H6    S    
C12   H4    S    
C9    H1    S    
Cu1   Cu9   S    
C108  C116  S    
C186  C189  T    
C272  H191  S    
C21   C141  S    
C83   C132  S    
C135  O77   A    
C38   C46   S    
C16   H8    S    
C75   C83   A    
C81   C130  S    
C24   C144  S    
C84   C108  A    
C128  O135  S    
C126  O131  S    
C15   C223  A    
C269  H181  S    
C125  O132  S    
C123  O128  S    
C121  O124  S    
Cu13  O41   S    
Cu14  O14   S    
Cu6   O6    S    
C270  H186  S    
C60   C68   A    
O134  C270  S    
C29   C37   S    
O135  C271  S    
C50   C106  A    
Cu19  O69   S    
C19   C139  S    
C243  H105  S    
C7    C215  S    
C36   H14   S    
C92   O20   A    
Cu6   O27   S    
C250  H125  S    
C1    O9    A    
C70   C78   A    
C153  C169  T    
C182  C198  S    
C242  H100  S    
Cu3   O21   S    
C257  H146  S    
C216  C224  A    
O99   C229  S    
C145  O49   A    
C123  O125  S    
C6    O6    A    
O113  C249  S    
C239  H93   S    
C8    O16   A    
Cu1   O20   S    
C128  O134  S    
C26   C202  A    
C264  H167  S    
C226  H60   S    
C175  C191  S    
Cu8   O56   S    
C131  O72   A    
C76   H52   S    
C30   C206  A    
C141  O92   A    
C65   C73   A    
C254  H136  S    
Cu7   Cu15  S    
Cu9   O9    S    
Cu4   O52   S    
C221  O101  S    
Cu11  O59   S    
C183  C199  S    
C58   C66   A    
C167  C183  T    
C43   H32   S    
C31   C39   S    
O116  C252  S    
C168  C184  T    
C239  C240  S    
C246  H112  S    
C268  H179  S    
C19   C27   A    
C252  H130  S    
C227  H63   S    
C259  H153  S    
Cu5   O5    S    
C78   C86   A    
C70   H46   S    
C237  H87   S    
C230  H70   S    
C159  C175  T    
C218  O98   S    
C46   H35   S    
C160  C176  T    
C253  H135  S    
C48   C208  S    
C202  C210  A    
Cu20  O94   S    
C26   C34   S    
Cu2   O19   S    
C225  H58   S    
Cu15  O48   S    
C232  H75   S    
C268  H180  S    
C262  H161  S    
C45   H33   S    
C265  H169  S    
C106  C114  S    
C254  H138  S    
C33   C41   S    
C227  C228  S    
C47   H37   S    
C242  H102  S    
C258  H148  S    
C266  H173  S    
Cu21  O73   S    
O130  C266  S    
C77   H53   S    
C99   O27   A    
C237  H88   S    
C173  C189  S    
C11   H3    S    
C55   C63   A    
C150  O54   A    
Cu2   O50   S    
C101  C165  S    
C240  H94   S    
O114  C250  S    
C236  H85   S    
C129  O68   A    
C155  C171  T    
C104  C168  S    
C225  C226  S    
C114  O106  S    
C89   C153  S    
C270  H184  S    
O119  C255  S    
C132  O70   A    
C18   C26   A    
O121  C257  S    
C92   C156  S    
C93   C157  S    
C110  C118  S    
C107  C115  S    
C41   H28   S    
C9    C17   A    
C96   C160  S    
C147  O59   A    
C260  H154  S    
Cu17  O65   S    
C248  H119  S    
C43   C203  S    
Cu21  O83   S    
Cu6   Cu14  S    
C51   C59   A    
C91   C155  S    
C235  H83   S    
C20   C140  S    
C35   C43   S    
C39   H24   S    
C10   C218  A    
C195  C200  T    
C40   H23   S    
C61   C69   A    
C147  O51   A    
C117  O113  S    
Cu17  O67   S    
Cu9   O57   S    
C14   C222  A    
Cu20  O70   S    
C152  O56   A    
C215  C223  A    
C233  H78   S    
Cu23  Cu24  S    
C58   C146  S    
C145  O57   A    
Cu3   Cu11  S    
C84   C131  S    
C210  C218  A    
C2    O2    A    
C165  C181  T    
C235  C236  S    
C68   H44   S    
C38   H18   S    
Cu11  O11   S    
C169  C185  S    
C224  O104  S    
C256  H143  S    
C22   C30   A    
O102  C235  S    
C28   C204  A    
C231  H73   S    
C172  C188  S    
C4    C212  S    
C33   H12   S    
C15   C23   A    
C247  H115  S    
Cu16  O47   S    
C83   C107  A    
C34   H11   S    
C122  O123  S    
C69   H45   S    
C64   C72   A    
Cu7   O55   S    
C238  H89   S    
C252  H132  S    
Cu4   Cu12  S    
C233  C234  S    
C16   C224  A    
C134  O74   A    
C266  H172  S    
C114  C122  S    
C39   H21   S    
C52   C108  A    
C16   C24   A    
O101  C233  S    
Cu8   Cu16  S    
C3    O3    A    
C253  H133  S    
C120  O119  S    
Cu5   O53   S    
C118  O115  S    
C118  C126  S    
C30   C38   S    
O117  C253  S    
C37   C45   S    
C56   C112  A    
Cu21  O81   S    
C119  C127  S    
C231  C232  S    
