data_mof_unit_pretest_421.cif
_audit_creation_date              2012-12-10T20:34:15-0500
_audit_creation_method            fapswitch 2.2
_symmetry_space_group_name_H-M    P1
_symmetry_Int_Tables_number       1
_space_group_crystal_system       triclinic
_cell_length_a                    9.907861
_cell_length_b                    10.738981
_cell_length_c                    13.635577
_cell_angle_alpha                 90.896047
_cell_angle_beta                  83.355592
_cell_angle_gamma                 88.9827
_cell_volume                      1440.62942868

loop_
_atom_site_label
_atom_site_type_symbol
_atom_type_description
_atom_site_fract_x
_atom_site_fract_y
_atom_site_fract_z
_atom_type_partial_charge
C1    C     C_R   0.499701 0.740035 0.496825 0.888029
C2    C     C_3   0.255856 0.935338 0.558681 -0.560760
C3    C     C_R   0.915304 0.542300 0.580468 0.163593
C4    C     C_R   0.475953 0.500588 0.685483 0.911182
C5    C     C_R   0.940128 0.438821 0.427741 -0.064910
C6    C     C_R   0.084615 0.439525 0.427207 -0.034063
C7    C     C_R   0.057261 0.539657 0.581563 0.212504
C8    C     C_3   0.054672 0.664034 0.630957 -0.382250
C9    C     C_3   0.900323 0.668955 0.627239 -0.318443
C10   C     C_R   0.501348 0.260153 0.497733 0.876684
C11   C     C_R   0.523960 0.498780 0.314546 0.895900
C12   C     C_1   0.457525 0.503494 0.789000 -0.126490
C13   C     C_1   0.541118 0.490989 0.211175 -0.140853
C14   C     C_2   0.548768 0.477720 0.020224 -0.213340
C15   C     C_2   0.436122 0.508617 0.980589 0.007321
C16   C     C_1   0.443572 0.506248 0.876652 -0.009986
C17   C     C_1   0.549961 0.483724 0.123762 0.042842
C18   C     C_1   0.309688 0.546810 0.038217 0.246977
C19   C     C_1   0.168945 0.370143 0.351135 0.319169
C20   C     C_1   0.101693 0.657513 0.729425 0.325004
C21   C     C_2   0.810871 0.670520 0.724650 1.010184
C22   C     C_2   0.136714 0.139731 0.533369 0.979093
C23   C     C_R   0.379747 0.939491 0.485473 0.138713
C24   C     C_1   0.880525 0.367979 0.353515 0.278090
C25   C     C_R   0.501243 0.871546 0.481873 -0.098817
C26   C     C_R   0.625525 0.932698 0.462237 -0.187535
C27   C     C_R   0.626753 0.061789 0.463510 -0.175371
C28   C     C_R   0.503737 0.128488 0.484717 -0.133053
C29   C     C_R   0.380980 0.067038 0.488231 0.103602
C30   C     C_3   0.260486 0.075897 0.565533 -0.216080
H1    H     H_    0.110763 0.730568 0.582810 0.165529
H2    H     H_    0.974380 0.252818 0.572747 0.332397
H3    H     H_    0.869493 0.740275 0.575321 0.156065
H4    H     H_    0.641565 0.448707 0.974527 0.172790
H5    H     H_    0.721636 0.881809 0.452195 0.175983
H6    H     H_    0.723352 0.108389 0.453914 0.187864
H7    H     H_    0.286852 0.110560 0.638154 0.160214
H8    H     H_    0.273899 0.888462 0.628291 0.204651
H9    H     H_    0.168439 0.902463 0.522081 0.217470
H10   H     H_    0.756158 0.587920 0.854435 0.335143
N1    N     N_R   0.857130 0.500860 0.500650 -0.150252
N2    N     N_R   0.142770 0.500820 0.500650 -0.139190
N3    N     N_1   0.208680 0.577265 0.084318 -0.184604
N4    N     N_1   0.234994 0.313408 0.289884 -0.176365
N5    N     N_1   0.138721 0.652593 0.806747 -0.177230
N6    N     N_1   0.834024 0.310184 0.293873 -0.190186
O1    O     O_R   0.385310 0.683210 0.499990 -0.622350
O2    O     O_R   0.820828 0.574615 0.791827 -0.789824
O3    O     O_2   0.101555 0.117971 0.451801 -0.645329
O4    O     O_R   0.059586 0.221055 0.599438 -0.795008
O5    O     O_R   0.614650 0.683240 0.500000 -0.624808
O6    O     O_R   0.368820 0.499950 0.640340 -0.608805
O7    O     O_R   0.598170 0.499990 0.640350 -0.596832
O8    O     O_R   0.385350 0.316760 0.500000 -0.618393
O9    O     O_R   0.614690 0.316790 0.500010 -0.620125
O10   O     O_R   0.401830 0.500010 0.359650 -0.616124
O11   O     O_R   0.631180 0.500050 0.359660 -0.612068
O12   O     O_2   0.728219 0.755765 0.743998 -0.629459
Zn1   Zn    Zn3+2 0.346870 0.499980 0.499990 0.977851
Zn2   Zn    Zn3+2 0.653130 0.500020 0.500010 0.974057

loop_
_geom_bond_atom_site_label_1
_geom_bond_atom_site_label_2
_ccdc_geom_bond_type
N2    Zn1   S    
C14   H4    S    
C15   C18   S    
C9    H3    S    
C29   C30   S    
C6    C19   S    
O6    Zn1   S    
C27   H6    S    
C4    C12   S    
C11   C13   S    
C2    H8    S    
C20   N5    T    
O10   Zn1   S    
C13   C17   T    
C22   O4    S    
C21   O2    S    
C24   N6    T    
C2    C23   S    
C7    C8    S    
C11   O11   A    
C18   N3    T    
C1    C25   S    
C10   O9    A    
C1    O5    A    
C14   C17   S    
C9    C21   S    
C26   C27   A    
C8    C20   S    
C5    C24   S    
C4    O6    A    
C22   O3    D    
C3    C9    S    
C23   C29   A    
C28   C29   A    
O7    Zn2   S    
H2    O4    S    
C3    C7    A    
O8    Zn1   S    
C23   C25   A    
C5    C6    A    
C10   O8    A    
C4    O7    A    
C2    C30   S    
O1    Zn1   S    
C15   C16   S    
C26   H5    S    
C21   O12   D    
C19   N4    T    
N1    Zn2   S    
C6    N2    A    
C7    N2    A    
C10   C28   S    
C27   C28   A    
H10   O2    S    
C5    N1    A    
C14   C15   D    
C3    N1    A    
O11   Zn2   S    
O5    Zn2   S    
C22   C30   S    
C25   C26   A    
O9    Zn2   S    
C8    H1    S    
C2    H9    S    
C1    O1    A    
C11   O10   A    
C12   C16   T    
C30   H7    S    
C8    C9    S    
