data_mof_unit_pretest_1558.cif
_audit_creation_date              2012-12-10T19:50:36-0500
_audit_creation_method            fapswitch 2.2
_symmetry_space_group_name_H-M    P1
_symmetry_Int_Tables_number       1
_space_group_crystal_system       triclinic
_cell_length_a                    18.294779
_cell_length_b                    18.289761
_cell_length_c                    18.263722
_cell_angle_alpha                 119.682969
_cell_angle_beta                  90.456674
_cell_angle_gamma                 119.720493
_cell_volume                      4342.85604588

loop_
_atom_site_label
_atom_site_type_symbol
_atom_type_description
_atom_site_fract_x
_atom_site_fract_y
_atom_site_fract_z
_atom_type_partial_charge
Br1   Br    Br    0.225873 0.118424 0.495530 -0.406344
Br2   Br    Br    0.403641 0.118827 0.491195 -0.426323
Br3   Br    Br    0.022520 0.740827 0.395121 -0.321879
Br4   Br    Br    0.984107 0.117800 0.708158 -0.414195
Br5   Br    Br    0.244692 0.392168 0.033632 -0.456452
Br6   Br    Br    0.212419 0.734714 0.396863 -0.330914
C1    C     C_R   0.639758 0.779685 0.639788 0.801439
C2    C     C_R   0.221043 0.945954 0.155385 -0.205498
C3    C     C_R   0.195396 0.890925 0.194556 -0.026834
C4    C     C_R   0.360117 0.220270 0.360069 0.832793
C5    C     C_R   0.225637 0.947995 0.287269 -0.009189
C6    C     C_3   0.224119 0.939543 0.364312 -0.409694
C7    C     C_3   0.283304 0.058155 0.423978 0.470833
C8    C     C_R   0.788670 0.565870 0.342296 0.067253
C9    C     C_R   0.696111 0.493447 0.304508 -0.100701
C10   C     C_R   0.658960 0.413597 0.212738 -0.192586
C11   C     C_R   0.712836 0.414288 0.158902 -0.196914
C12   C     C_3   0.836216 0.570242 0.767929 -0.151820
C13   C     C_R   0.804286 0.495077 0.196230 -0.109309
C14   C     C_R   0.841774 0.567306 0.289001 0.099450
C15   C     C_3   0.898363 0.682269 0.342683 0.069660
C16   C     C_R   0.360028 0.499753 0.639706 0.806540
C17   C     C_3   0.841178 0.680377 0.403240 -0.023872
C18   C     C_R   0.786973 0.948053 0.720887 0.046151
C19   C     C_R   0.694478 0.890938 0.695559 -0.051031
C20   C     C_R   0.655472 0.945949 0.726410 -0.194413
C21   C     C_R   0.709556 0.054084 0.780470 -0.197320
C22   C     C_R   0.803542 0.109019 0.804498 -0.072594
C23   C     C_3   0.765753 0.593165 0.792558 -0.211037
C24   C     C_R   0.838913 0.051845 0.772494 0.065894
C25   C     C_3   0.923550 0.058879 0.771083 0.133348
C26   C     C_3   0.864055 0.940265 0.711728 -0.454172
C27   C     C_R   0.289963 0.578542 0.341926 0.027364
C28   C     C_R   0.639979 0.499303 0.359985 0.817455
C29   C     C_R   0.316788 0.512902 0.304306 -0.123409
C30   C     C_R   0.306190 0.463336 0.213052 -0.232741
C31   C     C_R   0.254055 0.463802 0.157791 0.272481
C32   C     C_R   0.210408 0.512872 0.195277 -0.154425
C33   C     C_R   0.236578 0.577263 0.288362 -0.025321
C34   C     C_3   0.731820 0.523091 0.826110 -0.169428
C35   C     C_3   0.189741 0.602213 0.354164 0.353963
C36   C     C_3   0.249030 0.601498 0.413508 -0.045251
C37   C     C_R   0.273860 0.560862 0.721781 0.113572
C38   C     C_R   0.304189 0.498590 0.695096 -0.088339
C39   C     C_R   0.278301 0.433572 0.724272 -0.180132
C40   C     C_R   0.360244 0.501451 0.358926 0.839321
C41   C     C_R   0.224214 0.433622 0.778412 -0.162067
C42   C     C_R   0.195162 0.498679 0.804203 -0.090345
C43   C     C_R   0.221973 0.560933 0.773745 0.119336
C44   C     C_3   0.215856 0.639677 0.774814 -0.448300
C45   C     C_3   0.664025 0.429064 0.731268 -0.129953
C46   C     C_3   0.275154 0.639559 0.715392 -0.424951
C47   C     C_R   0.859964 0.499944 0.140057 0.811097
C48   C     C_R   0.139721 0.499755 0.860017 0.820671
C49   C     C_R   0.139870 0.779658 0.139763 0.802103
C50   C     C_R   0.860032 0.220243 0.860058 0.819200
C51   C     C_R   0.143746 0.502108 0.140914 0.856252
C52   C     C_R   0.641551 0.499752 0.641525 0.812748
C53   C     C_R   0.858401 0.499996 0.858231 0.801805
C54   C     C_3   0.768221 0.476323 0.673572 0.187706
C55   C     C_3   0.734408 0.405981 0.706577 -0.188168
C56   C     C_3   0.698739 0.499233 0.698541 -0.010192
C57   C     C_3   0.801323 0.500033 0.800602 -0.000181
C58   C     C_R   0.277478 0.051876 0.339325 0.045894
C59   C     C_R   0.304362 0.109039 0.303680 -0.061108
C60   C     C_R   0.275067 0.054072 0.209476 -0.199368
H1    H     H_    0.722477 0.329244 0.671933 0.170042
H2    H     H_    0.863585 0.905105 0.641567 0.249926
H3    H     H_    0.871928 0.905947 0.744561 0.195542
H4    H     H_    0.334760 0.420324 0.183688 0.204282
H5    H     H_    0.907574 0.628071 0.783333 0.170907
H6    H     H_    0.211629 0.535659 0.419165 0.131551
H7    H     H_    0.299597 0.382937 0.705642 0.210672
H8    H     H_    0.205524 0.383020 0.799822 0.218835
H9    H     H_    0.146785 0.608078 0.739880 0.222932
H10   H     H_    0.249423 0.712985 0.842629 0.209609
H11   H     H_    0.240299 0.607865 0.646165 0.226731
H12   H     H_    0.258503 0.904402 0.366305 0.246949
H13   H     H_    0.342942 0.712791 0.748884 0.213631
H14   H     H_    0.777754 0.669924 0.827034 0.152332
H15   H     H_    0.717704 0.542355 0.889779 0.150476
H16   H     H_    0.592630 0.371058 0.715569 0.192595
H17   H     H_    0.293612 0.094022 0.177421 0.179773
H18   H     H_    0.199672 0.906055 0.083393 0.176532
H19   H     H_    0.155994 0.904314 0.368786 0.246067
H20   H     H_    0.588052 0.353007 0.181935 0.180199
H21   H     H_    0.682267 0.353852 0.087869 0.181295
H22   H     H_    0.889575 0.710682 0.304065 0.093300
H23   H     H_    0.801054 0.709237 0.399854 0.101755
H24   H     H_    0.583653 0.906038 0.709134 0.192730
H25   H     H_    0.677688 0.094061 0.803201 0.185182
H26   H     H_    0.966244 0.093497 0.838085 0.148928
I1    I     I_    0.900697 0.733799 0.536997 -0.156924
I2    I     I_    0.797485 0.439651 0.552045 -0.286396
I3    I     I_    0.050159 0.483467 0.310337 -0.270467
I4    I     I_    0.346598 0.743979 0.539305 -0.221484
O1    O     O_3   0.500000 0.500000 0.500000 -0.505367
O2    O     O_R   0.945260 0.268310 0.884540 -0.614310
O3    O     O_R   0.117230 0.560570 0.177940 -0.606280
O4    O     O_R   0.676910 0.731570 0.616180 -0.638638
O5    O     O_R   0.821960 0.439250 0.882690 -0.636398
O6    O     O_R   0.117230 0.439140 0.056500 -0.603990
O7    O     O_R   0.943400 0.560680 0.882690 -0.645530
O8    O     O_R   0.115380 0.731510 0.054650 -0.657349
O9    O     O_R   0.823040 0.268340 0.883770 -0.650774
O10   O     O_R   0.945260 0.560610 0.176860 -0.594345
O11   O     O_R   0.116150 0.439180 0.884540 -0.612566
O12   O     O_R   0.384580 0.439270 0.616180 -0.628963
O13   O     O_R   0.384580 0.268400 0.445300 -0.595020
O14   O     O_R   0.383810 0.560730 0.615410 -0.642346
O15   O     O_R   0.554700 0.439300 0.323100 -0.649381
O16   O     O_R   0.382730 0.560770 0.443450 -0.624332
O17   O     O_R   0.678000 0.560660 0.617260 -0.621811
O18   O     O_R   0.382730 0.439340 0.322020 -0.652033
O19   O     O_R   0.556550 0.439230 0.617260 -0.626178
O20   O     O_R   0.676910 0.560700 0.445300 -0.613807
O21   O     O_R   0.554700 0.731600 0.615410 -0.639782
O22   O     O_R   0.383810 0.268430 0.323100 -0.655789
O23   O     O_3   0.999960 0.499910 0.999960 -0.509300
O24   O     O_R   0.823040 0.439210 0.054650 -0.653688
O25   O     O_R   0.115380 0.560640 0.883770 -0.647261
O26   O     O_R   0.116150 0.731480 0.176860 -0.618566
Zn1   Zn    Zn3+2 0.457170 0.413230 0.543930 1.031772
Zn2   Zn    Zn3+2 0.456070 0.586770 0.542830 0.986302
Zn3   Zn    Zn3+2 0.456070 0.413270 0.369320 0.978887
Zn4   Zn    Zn3+2 0.630690 0.586730 0.543930 1.006558
Zn5   Zn    Zn3+2 0.042790 0.586680 0.956030 0.967647
Zn6   Zn    Zn3+2 0.043880 0.586640 0.130630 1.039695
Zn7   Zn    Zn3+2 0.043880 0.413140 0.957130 1.041451
Zn8   Zn    Zn3+2 0.869270 0.413190 0.956030 0.976430

loop_
_geom_bond_atom_site_label_1
_geom_bond_atom_site_label_2
_ccdc_geom_bond_type
C52   C56   S    
C2    C60   A    
Br5   C31   S    
C35   C36   S    
C1    O21   A    
C29   C30   A    
C45   C55   S    
O6    Zn7   S    
C50   O2    A    
O11   Zn7   S    
C22   C50   S    
C47   O24   A    
C33   C35   S    
C42   C48   S    
C51   O6    A    
C23   H14   S    
C20   C21   A    
C27   C33   A    
C34   C57   S    
C6    H19   S    
C36   I4    S    
C27   C36   S    
C39   H7    S    
C30   C31   A    
O21   Zn2   S    
O25   Zn5   S    
O1    Zn2   S    
C40   O16   A    
C32   C33   A    
C27   C29   A    
C12   C57   S    
C10   C11   A    
C28   O20   A    
C9    C10   A    
C51   O3    A    
O10   Zn6   S    
O23   Zn8   S    
O2    Zn7   S    
C4    O13   A    
C54   C56   S    
C55   C57   S    
Br2   C7    S    
O14   Zn2   S    
C60   H17   S    
C47   O10   A    
C16   C38   S    
C13   C14   A    
C2    C3    A    
C16   O14   A    
Br6   C35   S    
C6    H12   S    
O15   Zn3   S    
C52   O17   A    
C44   C46   S    
C17   H23   S    
C21   H25   S    
C3    C49   S    
O22   Zn3   S    
C46   H13   S    
O7    Zn5   S    
C9    C28   S    
C26   H2    S    
O23   Zn6   S    
C13   C47   S    
C15   H22   S    
C11   H21   S    
C10   H20   S    
C28   O15   A    
C45   C56   S    
C30   H4    S    
C39   C41   A    
O19   Zn1   S    
C1    O4    A    
C40   O18   A    
C53   O5    A    
C8    C14   A    
C18   C19   A    
O1    Zn3   S    
C5    C58   A    
O18   Zn3   S    
O13   Zn1   S    
O17   Zn4   S    
C19   C20   A    
C49   O8    A    
C17   I1    S    
C54   C55   S    
C8    C17   S    
C37   C38   A    
C18   C26   S    
C31   C32   A    
C4    O22   A    
C44   H10   S    
C32   C51   S    
C55   H1    S    
C41   C42   A    
C24   C25   S    
C36   H6    S    
C12   C23   S    
C14   C15   S    
C3    C5    A    
C45   H16   S    
C26   H3    S    
C48   O11   A    
C12   C54   S    
C42   C43   A    
C48   O25   A    
C59   C60   A    
C15   C17   S    
C52   O19   A    
C43   C44   S    
O24   Zn8   S    
Br3   C15   S    
Br1   C7    S    
O12   Zn1   S    
C11   C13   A    
C46   H11   S    
C38   C39   A    
C4    C59   S    
C12   H5    S    
C23   C56   S    
C2    H18   S    
C34   H15   S    
C25   C26   S    
C37   C43   A    
C41   H8    S    
O1    Zn4   S    
C5    C6    S    
O16   Zn2   S    
O9    Zn8   S    
C20   H24   S    
C34   C45   S    
C53   C57   S    
C1    C19   S    
C53   O7    A    
C58   C59   A    
C22   C24   A    
O1    Zn1   S    
C44   H9    S    
O5    Zn8   S    
C35   I3    S    
C7    C58   S    
O4    Zn4   S    
C16   O12   A    
C23   C34   S    
O23   Zn7   S    
O3    Zn6   S    
O26   Zn6   S    
C37   C46   S    
C18   C24   A    
C50   O9    A    
C49   O26   A    
Br4   C25   S    
O8    Zn5   S    
C6    C7    S    
C25   H26   S    
C21   C22   A    
C8    C9    A    
O20   Zn4   S    
C29   C40   S    
C54   I2    S    
O23   Zn5   S    
