data_mof_unit_pretest_1864.cif
_audit_creation_date              2012-12-10T22:09:12-0500
_audit_creation_method            fapswitch 2.2
_symmetry_space_group_name_H-M    P1
_symmetry_Int_Tables_number       1
_space_group_crystal_system       triclinic
_cell_length_a                    16.410846
_cell_length_b                    16.607949
_cell_length_c                    28.757694
_cell_angle_alpha                 90.862924
_cell_angle_beta                  90.682135
_cell_angle_gamma                 90.700234
_cell_volume                      7835.87661049

loop_
_atom_site_label
_atom_site_type_symbol
_atom_type_description
_atom_site_fract_x
_atom_site_fract_y
_atom_site_fract_z
_atom_type_partial_charge
C1    C     C_R   0.616747 0.998757 0.560873 0.912448
C2    C     C_R   0.256463 0.938423 0.402964 0.097530
C3    C     C_R   0.726988 0.039920 0.329226 0.083142
C4    C     C_R   0.613440 0.001536 0.439263 0.951998
C5    C     C_R   0.663955 0.037891 0.361676 0.075440
C6    C     C_3   0.993379 0.013441 0.253190 -0.019593
C7    C     C_R   0.190507 0.006382 0.339036 0.030123
C8    C     C_R   0.315895 0.001007 0.405271 -0.153220
C9    C     C_R   0.802094 0.005700 0.340492 0.020203
C10   C     C_R   0.677576 0.001768 0.405069 -0.198671
C11   C     C_R   0.993834 0.207108 0.169864 -0.033823
C12   C     C_R   0.046233 0.265618 0.099745 -0.008532
C13   C     C_R   0.994127 0.331944 0.106415 -0.146324
C14   C     C_R   0.986364 0.820954 0.164942 -0.069938
C15   C     C_R   0.985170 0.693228 0.101502 -0.218263
C16   C     C_R   0.385994 0.998420 0.560690 0.794067
C17   C     C_1   0.065967 0.012675 0.281812 0.006005
C18   C     C_1   0.992542 0.084827 0.225611 0.048588
C19   C     C_1   0.923201 0.011839 0.282617 -0.019452
C20   C     C_1   0.991410 0.943763 0.222775 0.049906
C21   C     C_1   0.124054 0.010729 0.307038 -0.016113
C22   C     C_1   0.989192 0.887122 0.196788 0.087741
C23   C     C_R   0.954470 0.832400 0.120048 0.163204
C24   C     C_1   0.992545 0.141916 0.201080 0.013972
C25   C     C_1   0.866803 0.009521 0.308246 0.018721
C26   C     C_R   0.918796 0.039748 0.828642 0.148630
C27   C     C_R   0.904635 0.078849 0.870787 -0.171571
C28   C     C_R   0.382457 0.001266 0.439590 0.889983
C29   C     C_R   0.071737 0.902404 0.816899 0.028730
C30   C     C_R   0.067498 0.839768 0.848970 0.124829
C31   C     C_R   0.873920 0.069588 0.721951 0.091885
C32   C     C_R   0.804928 0.062515 0.692084 0.190646
C33   C     C_R   0.155410 0.971420 0.719032 0.172592
C34   C     C_R   0.953789 0.768031 0.087999 0.092373
C35   C     C_R   0.224928 0.005978 0.697546 0.113579
C36   C     C_R   0.085570 0.098378 0.708666 -0.232076
C37   C     C_R   0.150770 0.128765 0.683749 0.181342
C38   C     C_R   0.944398 0.972434 0.673865 0.110928
C39   C     C_R   0.880121 0.974943 0.641486 -0.217120
C40   C     C_R   0.249180 0.068438 0.340992 0.125201
C41   C     C_R   0.051340 0.110458 0.824450 0.143799
C42   C     C_R   0.033376 0.148714 0.867944 0.145406
C43   C     C_R   0.954608 0.843921 0.774075 0.149295
C44   C     C_R   0.950825 0.782267 0.807987 0.145554
C45   C     C_R   0.016592 0.746266 0.178780 0.154687
C46   C     C_3   0.007314 0.998354 0.757392 0.035037
C47   C     C_R   0.992572 0.053588 0.802595 -0.035361
C48   C     C_R   0.960223 0.132266 0.890395 0.001225
C49   C     C_R   0.011805 0.911266 0.780268 0.033077
C50   C     C_R   0.005090 0.782853 0.845762 -0.033795
C51   C     C_R   0.937787 0.010433 0.718980 0.028684
C52   C     C_R   0.311316 0.065484 0.374464 -0.215532
C53   C     C_R   0.808186 0.013275 0.652300 0.038976
C54   C     C_R   0.086817 0.021994 0.730195 0.062162
C55   C     C_R   0.222226 0.084670 0.680246 -0.023672
C56   C     C_R   0.015948 0.681737 0.146840 0.098037
C57   C     C_1   0.997952 0.723684 0.881656 0.092602
C58   C     C_1   0.993821 0.674735 0.911960 -0.091790
C59   C     C_1   0.940771 0.168264 0.934912 0.030627
C60   C     C_1   0.923897 0.197571 0.972147 0.033417
C61   C     C_1   0.740136 0.005518 0.620384 0.050465
C62   C     C_1   0.683486 0.000551 0.593431 -0.110259
C63   C     C_1   0.292714 0.120761 0.658869 0.022490
C64   C     C_R   0.815436 0.968714 0.383481 0.060122
C65   C     C_1   0.351539 0.151491 0.641315 0.117851
C66   C     C_R   0.987451 0.627037 0.068051 0.955525
C67   C     C_R   0.941723 0.272580 0.176769 0.056417
C68   C     C_R   0.993193 0.396794 0.072917 0.913241
C69   C     C_R   0.992597 0.616338 0.947887 0.904294
C70   C     C_R   0.997961 0.387096 0.953559 0.818531
C71   C     C_R   0.753004 0.966671 0.415881 0.142797
C72   C     C_R   0.045754 0.203285 0.131613 0.224608
C73   C     C_R   0.941828 0.335293 0.144833 0.094445
C74   C     C_R   0.193827 0.941505 0.369843 0.104593
H1    H     H_    0.356676 0.113418 0.376263 0.188098
H2    H     H_    0.076222 0.903734 0.373782 0.185689
H3    H     H_    0.700192 0.136849 0.290143 0.217608
H4    H     H_    0.667887 0.046952 0.267151 0.226838
H5    H     H_    0.138478 0.983487 0.854866 0.232259
H6    H     H_    0.193144 0.926458 0.817520 0.252227
H7    H     H_    0.062924 0.266288 0.029773 0.192900
H8    H     H_    0.142947 0.303835 0.062101 0.235501
H9    H     H_    0.040949 0.955456 0.632335 0.194816
H10   H     H_    0.996424 0.869515 0.650067 0.236066
H11   H     H_    0.829479 0.382417 0.152192 0.214830
H12   H     H_    0.848433 0.067162 0.889142 0.193187
H13   H     H_    0.903843 0.429688 0.183958 0.224847
H14   H     H_    0.306785 0.836877 0.428666 0.223829
H15   H     H_    0.258672 0.895821 0.468903 0.191128
H16   H     H_    0.290191 0.177373 0.317060 0.201404
H17   H     H_    0.256074 0.112085 0.276084 0.209502
H18   H     H_    0.884971 0.942221 0.608721 0.180018
H19   H     H_    0.034058 0.137152 0.712752 0.201447
H20   H     H_    0.905288 0.889350 0.369947 0.203975
H21   H     H_    0.937677 0.978716 0.393290 0.189731
H22   H     H_    0.849571 0.225641 0.214452 0.206667
H23   H     H_    0.923490 0.273626 0.246304 0.206126
H24   H     H_    0.133245 0.851831 0.335061 0.219814
I1    I     I_    0.123940 0.102793 0.120812 -0.249200
I2    I     I_    0.861179 0.685467 0.805962 -0.175325
I3    I     I_    0.815050 0.965472 0.811639 -0.256470
I4    I     I_    0.885362 0.186139 0.756035 -0.263436
I5    I     I_    0.155769 0.841216 0.721178 -0.272275
I6    I     I_    0.174022 0.140540 0.802446 -0.244206
I7    I     I_    0.869053 0.821802 0.717890 -0.236761
I8    I     I_    0.909069 0.784612 0.018601 -0.225664
I9    I     I_    0.058777 0.565852 0.167144 -0.270085
I10   I     I_    0.547803 0.086550 0.343810 -0.386369
I11   I     I_    0.908692 0.948083 0.101287 -0.247425
I12   I     I_    0.063262 0.732667 0.248091 -0.303353
I13   I     I_    0.156313 0.832678 0.904259 -0.259601
I14   I     I_    0.695207 0.127177 0.705548 -0.192575
I15   I     I_    0.777036 0.913593 0.481773 -0.305705
I16   I     I_    0.336662 0.941053 0.690450 -0.256543
I17   I     I_    0.139377 0.245835 0.655826 -0.247312
I18   I     I_    0.116532 0.230124 0.904438 -0.272567
N1    N     N_3   0.892613 0.933812 0.394866 -0.409498
N2    N     N_3   0.244424 0.134663 0.309452 -0.429316
N3    N     N_3   0.888219 0.276167 0.215855 -0.454817
N4    N     N_3   0.133324 0.878301 0.368271 -0.404119
N5    N     N_3   0.715837 0.076622 0.284781 -0.437852
N6    N     N_3   0.138773 0.957861 0.821442 -0.420839
N7    N     N_3   0.097906 0.258911 0.059986 -0.388761
N8    N     N_3   0.014598 0.927414 0.660898 -0.431713
N9    N     N_3   0.889834 0.403237 0.151575 -0.418191
N10   N     N_3   0.256136 0.872806 0.434866 -0.405097
O1    O     O_R   0.589050 0.066000 0.546390 -0.605061
O2    O     O_R   0.586750 0.068930 0.454890 -0.590221
O3    O     O_R   0.587650 0.931070 0.545110 -0.584679
O4    O     O_R   0.413250 0.931070 0.545110 -0.593273
O5    O     O_R   0.412350 0.068930 0.454890 -0.600044
O6    O     O_R   0.410950 0.934000 0.453610 -0.631421
O7    O     O_R   0.414650 0.066000 0.546390 -0.609635
O8    O     O_R   0.056930 0.600420 0.055130 -0.587241
O9    O     O_R   0.924600 0.421430 0.056650 -0.596652
O10   O     O_R   0.061270 0.426220 0.059090 -0.621899
O11   O     O_R   0.920260 0.595630 0.052680 -0.593989
O12   O     O_R   0.924170 0.588160 0.962540 -0.591232
O13   O     O_R   0.065180 0.418740 0.968950 -0.594940
O14   O     O_R   0.928510 0.413960 0.966510 -0.608035
O15   O     O_R   0.060840 0.592940 0.964990 -0.596031
O16   O     O_R   0.585350 0.934000 0.453610 -0.591668
Zn1   Zn    Zn3+2 0.500940 0.090730 0.500860 1.032023
Zn2   Zn    Zn3+2 0.499060 0.909270 0.499140 1.035283
Zn3   Zn    Zn3+2 0.084620 0.510410 0.012460 1.052015
Zn4   Zn    Zn3+2 0.900820 0.503970 0.009170 1.046603

loop_
_geom_bond_atom_site_label_1
_geom_bond_atom_site_label_2
_ccdc_geom_bond_type
C27   C48   A    
O6    Zn2   S    
C40   N2    S    
C63   C65   T    
C70   O14   A    
C9    C64   A    
C41   C42   A    
H8    N7    S    
H22   N3    S    
H11   N9    S    
C52   H1    S    
C1    C62   S    
C32   C53   A    
C9    C25   S    
O3    Zn2   S    
C29   C49   A    
H21   N1    S    
C6    C19   S    
C12   N7    S    
C46   C49   S    
C26   C27   A    
H2    N4    S    
H7    N7    S    
C18   C24   T    
H16   N2    S    
C36   C37   A    
C1    O3    A    
C26   I3    S    
C4    O16   A    
C38   C39   A    
H20   N1    S    
C69   O15   A    
C11   C24   S    
C69   O12   A    
C42   C48   A    
C71   I15   S    
C35   I16   S    
C43   I7    S    
C64   C71   A    
O8    Zn3   S    
H4    N5    S    
H14   N10   S    
C66   O8    A    
C53   C61   S    
C36   H19   S    
C45   C56   A    
C55   C63   S    
C7    C40   A    
C67   C73   A    
H9    N8    S    
C14   C45   A    
O4    Zn2   S    
C8    C52   A    
C15   C34   A    
O10   Zn3   S    
C2    C74   A    
O15   Zn3   S    
C10   C71   A    
C23   C34   A    
C12   C72   A    
C59   C60   T    
C33   I5    S    
C6    C18   S    
C16   O7    A    
C11   C67   A    
C7    C74   A    
H15   N10   S    
C23   I11   S    
H5    N6    S    
O7    Zn1   S    
C4    O2    A    
C35   C55   A    
C34   I8    S    
C31   I4    S    
O11   Zn4   S    
C68   O10   A    
C36   C54   A    
O14   Zn4   S    
C11   C72   A    
C43   C49   A    
H6    N6    S    
C38   C51   A    
C40   C52   A    
C15   C66   S    
C46   C51   S    
C17   C21   T    
C64   N1    S    
C28   O6    A    
C14   C23   A    
H23   N3    S    
C27   H12   S    
C43   C44   A    
C56   I9    S    
C29   C30   A    
C3    C9    A    
C31   C51   A    
C31   C32   A    
O9    Zn4   S    
C29   N6    S    
C46   C54   S    
C41   C47   A    
H17   N2    S    
O1    Zn1   S    
C26   C47   A    
C2    N10   S    
C42   I18   S    
C13   C73   A    
C8    C28   S    
O16   Zn2   S    
C4    C10   S    
C39   H18   S    
H13   N9    S    
O5    Zn1   S    
C48   C59   S    
C44   C50   A    
C33   C54   A    
C6    C17   S    
C46   C47   S    
O13   Zn3   S    
C32   I14   S    
C45   I12   S    
C50   C57   S    
C68   O9    A    
C2    C8    A    
C1    O1    A    
C20   C22   T    
C3    C5    A    
C58   C69   S    
H24   N4    S    
C37   I17   S    
H10   N8    S    
C74   N4    S    
C41   I6    S    
C30   I13   S    
C28   O5    A    
C15   C56   A    
C14   C22   S    
C5    C10   A    
C7    C21   S    
C13   C68   S    
C44   I2    S    
C57   C58   T    
C39   C53   A    
C66   O11   A    
C6    C20   S    
O12   Zn4   S    
C73   N9    S    
C33   C35   A    
C30   C50   A    
C61   C62   T    
C19   C25   T    
O2    Zn1   S    
H3    N5    S    
C37   C55   A    
C70   O13   A    
C12   C13   A    
C16   O4    A    
C67   N3    S    
C72   I1    S    
C38   N8    S    
C3    N5    S    
C5    I10   S    
