data_mof_unit_pretest_636.cif
_audit_creation_date              2012-12-10T16:32:36-0500
_audit_creation_method            fapswitch 2.2
_symmetry_space_group_name_H-M    P1
_symmetry_Int_Tables_number       1
_space_group_crystal_system       triclinic
_cell_length_a                    16.833919
_cell_length_b                    16.87198
_cell_length_c                    16.89667
_cell_angle_alpha                 65.21833
_cell_angle_beta                  64.53731
_cell_angle_gamma                 65.324551
_cell_volume                      3765.46203096

loop_
_atom_site_label
_atom_site_type_symbol
_atom_type_description
_atom_site_fract_x
_atom_site_fract_y
_atom_site_fract_z
_atom_type_partial_charge
C1    C     C_R   0.574595 0.045150 0.602868 0.113459
C2    C     C_R   0.820395 0.564989 0.034586 0.919995
C3    C     C_R   0.192709 0.563263 0.231878 -0.047514
C4    C     C_R   0.165860 0.608309 0.152775 -0.200552
C5    C     C_R   0.196310 0.564144 0.086837 -0.015969
C6    C     C_R   0.337141 0.841204 0.551381 0.172624
C7    C     C_R   0.420979 0.771420 0.548136 -0.177079
C8    C     C_R   0.431327 0.696878 0.625367 -0.180176
C9    C     C_R   0.358399 0.691368 0.706894 -0.090938
C10   C     C_R   0.275468 0.761086 0.711591 -0.175992
C11   C     C_R   0.264311 0.835292 0.634008 -0.123460
C12   C     C_R   0.718332 0.929314 0.541002 0.157421
C13   C     C_R   0.429113 0.979281 0.177680 0.998791
C14   C     C_R   0.690940 0.849521 0.592802 -0.212043
C15   C     C_R   0.715851 0.781471 0.552895 -0.143465
C16   C     C_R   0.770504 0.790819 0.461901 -0.047570
C17   C     C_R   0.801436 0.867941 0.410623 -0.193418
C18   C     C_R   0.775104 0.937095 0.449436 -0.005822
C19   C     C_R   0.523890 0.339212 0.859831 0.146046
C20   C     C_R   0.515477 0.412822 0.780543 -0.174323
C21   C     C_R   0.591985 0.422539 0.702717 -0.163413
C22   C     C_R   0.678027 0.359469 0.703290 -0.089403
C23   C     C_R   0.687594 0.286421 0.781654 -0.206025
C24   C     C_R   0.557793 0.047941 0.821530 0.861054
C25   C     C_R   0.610987 0.275520 0.859204 -0.089869
C26   C     C_R   0.519045 0.739907 0.912026 0.169237
C27   C     C_R   0.562304 0.714449 0.831000 -0.231674
C28   C     C_R   0.516229 0.745512 0.767057 -0.137587
C29   C     C_R   0.427119 0.804260 0.782435 -0.066874
C30   C     C_R   0.383469 0.831268 0.862189 -0.204482
C31   C     C_R   0.429013 0.799704 0.926593 -0.006607
C32   C     C_R   0.837798 0.525784 0.339068 0.156648
C33   C     C_R   0.759310 0.514188 0.415169 -0.170818
C34   C     C_R   0.676291 0.584067 0.420959 -0.156868
C35   C     C_R   0.575368 0.834744 0.997615 0.948693
C36   C     C_R   0.670549 0.666504 0.351058 -0.091913
C37   C     C_R   0.747897 0.679355 0.275510 -0.173342
C38   C     C_R   0.831043 0.609685 0.269329 -0.080017
C39   C     C_R   0.913957 0.542694 0.731804 0.159372
C40   C     C_R   0.833249 0.592694 0.706615 -0.203836
C41   C     C_R   0.764952 0.551851 0.733459 -0.149745
C42   C     C_R   0.774013 0.462312 0.789397 -0.045921
C43   C     C_R   0.851787 0.412833 0.818298 -0.190039
C44   C     C_R   0.921842 0.452026 0.788897 -0.011725
C45   C     C_R   0.435031 0.179351 0.965866 0.904489
C46   C     C_R   0.020368 0.570431 0.823057 1.001204
C47   C     C_R   0.961834 0.436898 0.179270 0.897836
C48   C     C_R   0.821550 0.023150 0.570106 0.984604
C49   C     C_R   0.178901 0.954456 0.441147 0.870151
C50   C     C_R   0.520613 0.032436 0.557800 -0.021776
C51   C     C_R   0.394377 0.967417 0.421026 0.119293
C52   C     C_R   0.437850 0.984082 0.473656 -0.015702
C53   C     C_R   0.011440 0.557830 0.533678 -0.018141
C54   C     C_R   0.964494 0.469650 0.454870 -0.013646
C55   C     C_R   0.540472 0.543654 0.023603 -0.021027
C56   C     C_R   0.453271 0.455193 0.987708 -0.021134
C57   C     C_R   0.560142 0.031032 0.466155 0.268536
C58   C     C_R   0.387754 0.002609 0.559383 0.247471
C59   C     C_R   0.010784 0.466390 0.573795 0.273886
C60   C     C_R   0.978875 0.556825 0.405393 0.257344
C61   C     C_R   0.448163 0.581173 0.025342 0.269630
C62   C     C_R   0.027349 0.603853 0.583722 0.114708
C63   C     C_R   0.538412 0.407776 0.005492 0.255555
C64   C     C_R   0.529460 0.986598 0.434638 0.277402
C65   C     C_R   0.433110 0.016884 0.605835 0.250230
C66   C     C_R   0.415643 0.547433 0.985068 0.269521
C67   C     C_R   0.587770 0.456967 0.008789 0.254831
C68   C     C_R   0.965277 0.433605 0.545926 0.268796
C69   C     C_R   0.990287 0.605380 0.450294 0.241419
C70   C     C_R   0.530233 0.092175 0.670540 0.025145
C71   C     C_R   0.417094 0.002055 0.323146 -0.088723
C72   C     C_R   0.074017 0.671753 0.535786 0.029663
C73   C     C_R   0.961452 0.410078 0.409741 0.108924
C74   C     C_R   0.003160 0.313424 0.434383 -0.038268
C75   C     C_R   0.662388 0.559441 0.064204 -0.034329
C76   C     C_R   0.300822 0.428630 0.025347 -0.028490
C77   C     C_R   0.328341 0.918410 0.467094 0.028897
C78   C     C_R   0.672704 0.008218 0.579767 -0.086284
C79   C     C_R   0.440670 0.334969 0.942195 -0.036025
C80   C     C_R   0.567788 0.696289 0.982341 -0.029849
C81   C     C_R   0.924206 0.448186 0.335949 -0.027866
C82   C     C_R   0.994105 0.581207 0.681496 -0.089570
C83   C     C_R   0.583197 0.085707 0.720703 -0.292753
C84   C     C_R   0.589197 0.600234 0.025485 0.117407
C85   C     C_R   0.390945 0.967193 0.276333 -0.203722
C86   C     C_R   0.073915 0.720680 0.586393 -0.295812
C87   C     C_R   0.999952 0.263186 0.387066 -0.283585
C88   C     C_R   0.726701 0.608584 0.033446 -0.171760
C89   C     C_R   0.252861 0.381540 0.018566 -0.287210
C90   C     C_R   0.279804 0.918912 0.415932 -0.296665
C91   C     C_R   0.721918 0.038418 0.607772 -0.206336
C92   C     C_R   0.390984 0.272506 0.968336 -0.173196
C93   C     C_R   0.617186 0.744722 0.985055 -0.290899
C94   C     C_R   0.956984 0.396301 0.273905 -0.166551
C95   C     C_R   0.397894 0.406943 0.983292 0.124002
C96   C     C_R   0.029711 0.608817 0.725881 -0.197762
C97   C     C_R   0.674205 0.083210 0.675222 0.379164
C98   C     C_R   0.325510 0.919788 0.325832 0.374136
C99   C     C_R   0.074638 0.675990 0.675584 0.375555
C100  C     C_R   0.001635 0.303835 0.298426 0.355022
C101  C     C_R   0.705238 0.701389 0.987491 0.368896
C102  C     C_R   0.296715 0.294666 0.012633 0.364828
C103  C     C_R   0.445824 0.171383 0.664723 0.193764
C104  C     C_R   0.440972 0.234291 0.578462 -0.179121
C105  C     C_R   0.364596 0.310906 0.571148 -0.176394
C106  C     C_R   0.991976 0.171467 0.427216 0.954597
C107  C     C_R   0.292050 0.326093 0.649660 -0.099741
C108  C     C_R   0.295852 0.264739 0.735556 -0.165313
C109  C     C_R   0.372200 0.188085 0.743296 -0.109532
C110  C     C_R   0.453285 0.082918 0.275889 0.153558
C111  C     C_R   0.400428 0.161850 0.304559 -0.202731
C112  C     C_R   0.439578 0.230191 0.281428 -0.148518
C113  C     C_R   0.530705 0.222281 0.226904 -0.044699
C114  C     C_R   0.582790 0.146386 0.194352 -0.186672
C115  C     C_R   0.544697 0.076979 0.218728 -0.008378
C116  C     C_R   0.150985 0.664403 0.449559 0.170848
C117  C     C_R   0.042745 0.820856 0.559884 0.884785
C118  C     C_R   0.225737 0.584685 0.451683 -0.184293
C119  C     C_R   0.301758 0.576949 0.373528 -0.180638
C120  C     C_R   0.303940 0.648469 0.292310 -0.081477
C121  C     C_R   0.229109 0.726985 0.288521 -0.189871
C122  C     C_R   0.153232 0.735539 0.366943 -0.115923
C123  C     C_R   0.075039 0.271770 0.480986 0.175122
C124  C     C_R   0.156075 0.298272 0.435710 -0.230337
C125  C     C_R   0.220149 0.270452 0.480881 -0.123739
C126  C     C_R   0.204869 0.214303 0.571061 -0.054277
C127  C     C_R   0.125928 0.185053 0.615995 -0.213592
C128  C     C_R   0.163687 0.424751 0.003920 0.954819
C129  C     C_R   0.061348 0.213315 0.571360 -0.007450
C130  C     C_R   0.657531 0.480366 0.149198 0.146975
C131  C     C_R   0.583397 0.492745 0.228651 -0.172757
C132  C     C_R   0.575606 0.421073 0.310144 -0.159667
C133  C     C_R   0.641353 0.336022 0.313260 -0.098934
C134  C     C_R   0.715069 0.322551 0.234934 -0.180744
C135  C     C_R   0.723415 0.394100 0.153389 -0.070566
C136  C     C_R   0.255824 0.474604 0.098667 0.162969
C137  C     C_R   0.281232 0.429827 0.179047 -0.220240
C138  C     C_R   0.250578 0.474228 0.244931 -0.144163
H1    H     H_    0.344826 0.987685 0.727589 0.326499
H2    H     H_    0.327118 0.658572 0.074273 0.343952
H3    H     H_    0.006762 0.644818 0.284308 0.328262
H4    H     H_    0.059270 0.346732 0.651296 0.345602
H5    H     H_    0.496978 0.224837 0.516642 0.146628
H6    H     H_    0.361779 0.358573 0.504526 0.124574
H7    H     H_    0.232835 0.385275 0.644053 0.172595
H8    H     H_    0.239473 0.276570 0.796392 0.161251
H9    H     H_    0.371871 0.142066 0.810668 0.174609
H10   H     H_    0.330474 0.167600 0.349662 0.156182
H11   H     H_    0.399970 0.288678 0.307080 0.116224
H12   H     H_    0.651671 0.940917 0.355566 0.340703
H13   H     H_    0.561203 0.274605 0.210621 0.146095
H14   H     H_    0.654311 0.139069 0.153863 0.109887
H15   H     H_    0.590148 0.015155 0.200666 0.169877
H16   H     H_    0.225687 0.529019 0.514452 0.139078
H17   H     H_    0.359034 0.515571 0.376002 0.126204
H18   H     H_    0.363252 0.642642 0.232239 0.191187
H19   H     H_    0.230319 0.781741 0.224996 0.166523
H20   H     H_    0.096297 0.796892 0.362009 0.188074
H21   H     H_    0.167914 0.342607 0.366168 0.150417
H22   H     H_    0.280980 0.293388 0.446608 0.119575
H23   H     H_    0.949995 0.725743 0.368536 0.326575
H24   H     H_    0.254002 0.193643 0.606346 0.163489
H25   H     H_    0.113355 0.142653 0.686512 0.117638
H26   H     H_    0.998045 0.194790 0.610055 0.169501
H27   H     H_    0.531838 0.558336 0.227597 0.139613
H28   H     H_    0.518718 0.431442 0.371044 0.128712
H29   H     H_    0.635062 0.280483 0.376252 0.155749
H30   H     H_    0.765542 0.256308 0.237188 0.147295
H31   H     H_    0.779573 0.380094 0.093595 0.191359
H32   H     H_    0.326730 0.361165 0.188948 0.154877
H33   H     H_    0.271932 0.439890 0.305901 0.124044
H34   H     H_    0.919247 0.356350 0.668234 0.339503
H35   H     H_    0.168258 0.597273 0.283269 0.164807
H36   H     H_    0.122828 0.678293 0.141566 0.113500
H37   H     H_    0.178666 0.602927 0.024160 0.172600
H38   H     H_    0.478227 0.774516 0.485410 0.142602
H39   H     H_    0.496043 0.643613 0.622064 0.125578
H40   H     H_    0.366555 0.633716 0.766672 0.184146
H41   H     H_    0.219484 0.757362 0.775313 0.170341
H42   H     H_    0.199583 0.888344 0.639633 0.184009
H43   H     H_    0.646439 0.842402 0.662842 0.157090
H44   H     H_    0.691494 0.722129 0.591652 0.117953
H45   H     H_    0.707545 0.371529 0.970418 0.326260
H46   H     H_    0.787919 0.738720 0.430882 0.144059
H47   H     H_    0.842155 0.876350 0.339253 0.112173
H48   H     H_    0.792604 0.999596 0.404991 0.170224
H49   H     H_    0.449413 0.462965 0.779151 0.140816
H50   H     H_    0.584645 0.479255 0.642106 0.122623
H51   H     H_    0.737362 0.367469 0.643285 0.175892
H52   H     H_    0.754551 0.238059 0.782332 0.157668
H53   H     H_    0.621487 0.219378 0.919130 0.195970
H54   H     H_    0.631225 0.669027 0.818951 0.152717
H55   H     H_    0.549176 0.723728 0.705877 0.129201
H56   H     H_    0.338968 0.666912 0.935321 0.344618
H57   H     H_    0.391774 0.828786 0.732620 0.162054
H58   H     H_    0.313379 0.875014 0.875266 0.116942
H59   H     H_    0.390849 0.817073 0.990173 0.172706
H60   H     H_    0.762235 0.450483 0.469821 0.138476
H61   H     H_    0.616252 0.574238 0.479490 0.124496
H62   H     H_    0.606321 0.720574 0.355488 0.144456
H63   H     H_    0.743649 0.743739 0.221883 0.151981
H64   H     H_    0.889973 0.623838 0.211795 0.190178
H65   H     H_    0.826153 0.661675 0.661424 0.158272
H66   H     H_    0.705361 0.588801 0.709920 0.118450
H67   H     H_    0.264983 0.032626 0.646366 0.329355
H68   H     H_    0.721207 0.430951 0.809310 0.150503
H69   H     H_    0.860206 0.342257 0.859461 0.111166
H70   H     H_    0.985276 0.407761 0.803523 0.171102
H71   H     H_    0.672232 0.154570 0.741364 0.339519
H72   H     H_    0.262363 0.843440 0.331723 0.336351
H73   H     H_    0.152953 0.738436 0.666838 0.332960
H74   H     H_    0.093717 0.199565 0.256898 0.328217
H75   H     H_    0.749221 0.806598 0.901477 0.330512
H76   H     H_    0.189479 0.251514 0.094224 0.354564
H77   H     H_    0.638179 0.079711 0.344588 0.339341
H78   H     H_    0.621595 0.288980 0.046820 0.327836
O1    O     O_R   0.982940 0.138950 0.510160 -0.636319
O2    O     O_R   0.982940 0.510160 0.138950 -0.670099
O3    O     O_R   0.861050 0.017060 0.489840 -0.655045
O4    O     O_R   0.138950 0.982940 0.510160 -0.633443
O5    O     O_R   0.867700 0.025880 0.612340 -0.544244
O6    O     O_R   0.132300 0.974120 0.387660 -0.616144
O7    O     O_R   0.025880 0.612340 0.867700 -0.535394
O8    O     O_R   0.974120 0.387660 0.132300 -0.573542
O9    O     O_R   0.612340 0.867700 0.025880 -0.590363
O10   O     O_R   0.387660 0.132300 0.974120 -0.575481
O11   O     O_R   0.387660 0.974120 0.132300 -0.536125
O12   O     O_R   0.017060 0.861050 0.489840 -0.631337
O13   O     O_R   0.612340 0.025880 0.867700 -0.620966
O14   O     O_R   0.132300 0.387660 0.974120 -0.590469
O15   O     O_R   0.867700 0.612340 0.025880 -0.567859
O16   O     O_R   0.974120 0.132300 0.387660 -0.587173
O17   O     O_R   0.025880 0.867700 0.612340 -0.611913
O18   O     O_3   0.394295 0.017220 0.696216 -0.773536
O19   O     O_3   0.588027 0.942088 0.369063 -0.800264
O20   O     O_3   0.982308 0.697353 0.414787 -0.785653
O21   O     O_3   0.921788 0.367317 0.605079 -0.807388
O22   O     O_3   0.680947 0.423334 0.995946 -0.790984
O23   O     O_R   0.138950 0.510160 0.982940 -0.634969
O24   O     O_3   0.348862 0.602458 0.942667 -0.809742
O25   O     O_3   0.295893 0.006804 0.594511 -0.780108
O26   O     O_3   0.625488 0.076494 0.408499 -0.808402
O27   O     O_3   0.569969 0.314609 0.021665 -0.789217
O28   O     O_3   0.391679 0.648625 0.067481 -0.814749
O29   O     O_3   0.984077 0.590852 0.314156 -0.787349
O30   O     O_3   0.058371 0.410301 0.636110 -0.810009
O31   O     O_3   0.719019 0.114684 0.702782 -0.733098
O32   O     O_3   0.299727 0.884095 0.283498 -0.733687
O33   O     O_3   0.111201 0.702774 0.716140 -0.734305
O34   O     O_R   0.861050 0.489840 0.017060 -0.655629
O35   O     O_3   0.044392 0.253356 0.236556 -0.744330
O36   O     O_3   0.769192 0.749563 0.948306 -0.724705
O37   O     O_3   0.247602 0.232510 0.046816 -0.724459
O38   O     O_R   0.510160 0.982940 0.138950 -0.659982
O39   O     O_R   0.489840 0.017060 0.861050 -0.640251
O40   O     O_R   0.489840 0.861050 0.017060 -0.632220
O41   O     O_R   0.510160 0.138950 0.982940 -0.654766
O42   O     O_R   0.017060 0.489840 0.861050 -0.666227
Zn1   Zn    Zn3+2 0.004880 0.004880 0.583590 0.973615
Zn2   Zn    Zn3+2 0.995120 0.995120 0.416410 0.953573
Zn3   Zn    Zn3+2 0.004880 0.583590 0.004880 0.982597
Zn4   Zn    Zn3+2 0.995120 0.416410 0.995120 0.958956
Zn5   Zn    Zn3+2 0.583590 0.004880 0.004880 0.942977
Zn6   Zn    Zn3+2 0.416410 0.995120 0.995120 0.989592

loop_
_geom_bond_atom_site_label_1
_geom_bond_atom_site_label_2
_ccdc_geom_bond_type
C46   O42   A    
C56   C95   S    
C47   O8    A    
C71   C110  S    
C117  O12   A    
C126  C127  A    
C133  C134  A    
C49   O6    A    
C5    C136  A    
C41   C42   A    
C113  H13   S    
C83   C97   A    
C130  C135  A    
C114  H14   S    
C49   C90   S    
C99   O33   S    
C100  O35   S    
C53   C69   A    
C105  H6    S    
C127  C129  A    
C114  C115  A    
C76   C136  S    
C125  H22   S    
C7    C8    A    
O17   Zn1   S    
C54   C60   A    
C4    C5    A    
C128  O23   A    
C98   O32   S    
C32   C81   S    
C105  C107  A    
C26   C27   A    
C57   O26   S    
C116  C122  A    
C57   C64   A    
C10   H41   S    
C33   H60   S    
C28   C29   A    
C24   C83   S    
C132  H28   S    
C113  C114  A    
C68   O21   S    
C2    O34   A    
C76   C95   A    
C112  H11   S    
C30   C31   A    
C107  H7    S    
C41   H66   S    
C75   C84   A    
C54   C68   A    
C48   O5    A    
C15   C16   A    
C96   C99   A    
C44   H70   S    
C108  C109  A    
H75   O36   S    
C17   C18   A    
C73   C74   A    
O7    Zn3   S    
C45   C92   S    
C110  C111  A    
O34   Zn4   S    
C85   C98   A    
C103  C104  A    
C71   C85   A    
C8    H39   S    
C3    H35   S    
C30   H58   S    
C111  C112  A    
C24   O39   A    
C17   H47   S    
C132  C133  A    
H4    O30   S    
C48   C91   S    
C12   C78   S    
C127  H25   S    
C107  C108  A    
C40   H65   S    
C2    C88   S    
H72   O32   S    
C74   C87   A    
C86   C117  S    
C9    C10   A    
H71   O31   S    
C34   C36   A    
C75   C130  S    
C92   C102  A    
C76   C89   A    
O42   Zn4   S    
H34   O21   S    
C61   O28   S    
O13   Zn5   S    
C74   C123  S    
O15   Zn3   S    
C60   O29   S    
C35   O9    A    
C21   C22   A    
C115  H15   S    
H76   O37   S    
C1    C78   A    
C5    H37   S    
C109  H9    S    
C51   C71   A    
C37   C38   A    
H1    O18   S    
H67   O25   S    
C61   C66   A    
C73   C81   A    
C104  C105  A    
O11   Zn6   S    
C88   C101  A    
C6    C7    A    
C108  H8    S    
C35   C93   S    
C53   C59   A    
C47   O2    A    
C63   C67   A    
C77   C90   A    
C56   C63   A    
C82   C96   A    
C49   O4    A    
C43   H69   S    
C51   C52   S    
C65   O18   S    
C123  C124  A    
O4    Zn1   S    
C64   O19   S    
C24   O13   A    
C52   C64   A    
C93   C101  A    
C6    C11   A    
C59   C68   A    
C70   C103  S    
C16   C17   A    
C6    C77   S    
O8    Zn4   S    
C29   H57   S    
C18   H48   S    
C26   C80   S    
C46   O7    A    
C89   C128  S    
C129  H26   S    
H2    O28   S    
C12   C18   A    
C27   H54   S    
C22   H51   S    
C58   O25   S    
C43   C44   A    
C51   C77   A    
C79   C95   A    
C29   C30   A    
C70   C83   A    
C8    C9    A    
C54   C73   S    
C53   C62   S    
C58   C65   A    
H3    O29   S    
C120  H18   S    
C94   C100  A    
C63   O27   S    
C7    H38   S    
C20   C21   A    
C89   C102  A    
C16   H46   S    
C118  C119  A    
C122  H20   S    
C104  H5    S    
C62   C72   A    
C3    C138  A    
C91   C97   A    
H74   O35   S    
C19   C79   S    
C86   C99   A    
C121  C122  A    
C39   C44   A    
C52   C58   A    
C2    O15   A    
C116  C118  A    
C128  O14   A    
C40   C41   A    
C12   C14   A    
O38   Zn5   S    
C118  H16   S    
C32   C38   A    
O40   Zn6   S    
C25   H53   S    
C125  C126  A    
C135  H31   S    
C134  H30   S    
C101  O36   S    
C42   C43   A    
O9    Zn5   S    
O16   Zn2   S    
C3    C4    A    
O10   Zn6   S    
C31   H59   S    
C14   H43   S    
C120  C121  A    
C21   H50   S    
C79   C92   A    
C87   C100  A    
C1    C50   S    
O2    Zn3   S    
C36   C37   A    
H77   O26   S    
C119  H17   S    
C15   H44   S    
C66   O24   S    
C138  H33   S    
O41   Zn5   S    
C50   C57   A    
C69   O20   S    
C22   C23   A    
C36   H62   S    
C39   C82   S    
C136  C137  A    
C28   H55   S    
H12   O19   S    
C97   O31   S    
C55   C67   A    
C119  C120  A    
O12   Zn2   S    
C45   O41   A    
C134  C135  A    
O3    Zn2   S    
C78   C91   A    
C137  C138  A    
C72   C116  S    
C67   O22   S    
C1    C70   A    
O1    Zn1   S    
C103  C109  A    
C102  O37   S    
C32   C33   A    
C19   C20   A    
C133  H29   S    
C130  C131  A    
C55   C84   S    
H45   O22   S    
O5    Zn1   S    
C111  H10   S    
C80   C84   A    
C81   C94   A    
C117  O17   A    
C13   O11   A    
C35   O40   A    
H23   O20   S    
C60   C69   A    
H78   O27   S    
C56   C66   A    
C13   O38   A    
C55   C61   A    
O14   Zn4   S    
C47   C94   S    
C33   C34   A    
C42   H68   S    
C59   O30   S    
C112  C113  A    
C45   O10   A    
C23   C25   A    
C62   C82   A    
C19   C25   A    
C50   C65   A    
O6    Zn2   S    
C124  H21   S    
C121  H19   S    
C10   C11   A    
C34   H61   S    
C39   C40   A    
C75   C88   A    
C26   C31   A    
C106  O1    A    
C46   C96   S    
C87   C106  S    
C131  H27   S    
C38   H64   S    
C13   C85   S    
C27   C28   A    
C106  O16   A    
H73   O33   S    
C37   H63   S    
C14   C15   A    
O23   Zn3   S    
C4    H36   S    
C11   H42   S    
C72   C86   A    
H56   O24   S    
C80   C93   A    
C126  H24   S    
O39   Zn6   S    
C110  C115  A    
C90   C98   A    
C23   H52   S    
C123  C129  A    
C9    H40   S    
C131  C132  A    
C124  C125  A    
C20   H49   S    
C48   O3    A    
C137  H32   S    
