data_mof_unit_pretest_1354.cif
_audit_creation_date              2012-12-10T20:25:40-0500
_audit_creation_method            fapswitch 2.2
_symmetry_space_group_name_H-M    P1
_symmetry_Int_Tables_number       1
_space_group_crystal_system       triclinic
_cell_length_a                    8.527468
_cell_length_b                    10.72476
_cell_length_c                    9.976589
_cell_angle_alpha                 90.979651
_cell_angle_beta                  96.035843
_cell_angle_gamma                 91.546481
_cell_volume                      906.838419528

loop_
_atom_site_label
_atom_site_type_symbol
_atom_type_description
_atom_site_fract_x
_atom_site_fract_y
_atom_site_fract_z
_atom_type_partial_charge
C1    C     C_R   0.492577 0.260307 0.498077 0.894457
C2    C     C_R   0.432767 0.928886 0.379283 -0.144924
C3    C     C_R   0.480781 0.870581 0.500701 -0.121216
C4    C     C_R   0.498401 0.939775 0.620573 0.015196
C5    C     C_3   0.620272 0.941495 0.741103 0.439412
C6    C     C_3   0.607190 0.084204 0.741104 0.801391
C7    C     C_R   0.384072 0.437009 0.059560 -0.040378
C8    C     C_R   0.610272 0.565652 0.082155 0.334648
C9    C     C_R   0.613285 0.563630 0.940440 0.474557
C10   C     C_R   0.386724 0.433716 0.917362 -0.106165
C11   C     C_3   0.211489 0.450693 0.892494 0.683648
C12   C     C_R   0.203008 0.505733 0.468017 0.881557
C13   C     C_3   0.210555 0.465546 0.045208 0.572185
C14   C     C_R   0.499012 0.739505 0.500875 0.962638
C15   C     C_R   0.797674 0.497784 0.532671 0.997495
C16   C     C_2   0.046520 0.541552 0.464651 0.159355
C17   C     C_2   0.958746 0.475123 0.540494 -0.281751
C18   C     C_R   0.488830 0.066600 0.617940 -0.205641
C19   C     C_R   0.470448 0.127932 0.495291 -0.187934
C20   C     C_R   0.429003 0.057630 0.374720 0.300882
H1    H     H_    0.997803 0.388318 0.585751 0.140576
H2    H     H_    0.406128 0.875300 0.286193 0.223008
N1    N     N_R   0.498950 0.499140 0.142680 -0.159945
N2    N     N_R   0.498950 0.499180 0.857030 -0.190775
O1    O     O_R   0.500020 0.316790 0.614690 -0.582335
O2    O     O_R   0.500000 0.316760 0.385350 -0.576665
O3    O     O_R   0.271760 0.500010 0.587850 -0.619805
O4    O     O_R   0.271740 0.499970 0.358500 -0.560707
O5    O     O_R   0.500000 0.683240 0.614650 -0.626757
O6    O     O_R   0.499980 0.683210 0.385310 -0.597530
O7    O     O_R   0.728260 0.500030 0.641500 -0.573661
O8    O     O_R   0.728240 0.499990 0.412150 -0.589348
Zn1   Zn    Zn3+2 0.500010 0.500020 0.653130 1.041338
Zn2   Zn    Zn3+2 0.499990 0.499980 0.346870 1.074398
Br1   Br    Br    0.014389 0.716300 0.438208 -0.329881
O9    O     O_3   0.729444 0.633797 0.889680 -0.642948
H3    H     H_    0.690262 0.655021 0.797295 0.401150
O10   O     O_3   0.163205 0.557009 0.819611 -0.662687
H4    H     H_    0.245800 0.624032 0.836479 0.343754
O11   O     O_3   0.130574 0.342205 0.839125 -0.682929
H5    H     H_    0.179445 0.318308 0.756806 0.342803
Br2   Br    Br    0.167271 0.634904 0.104663 -0.302162
O12   O     O_3   0.115817 0.376242 0.103389 -0.658510
H6    H     H_    0.150271 0.291849 0.079888 0.384868
Br3   Br    Br    0.377902 0.125111 0.198896 -0.407187
O13   O     O_3   0.560690 0.885054 0.851650 -0.723276
H7    H     H_    0.641945 0.900437 0.929272 0.399321
Br4   Br    Br    0.825342 0.879091 0.704562 -0.374264
O14   O     O_3   0.542126 0.134357 0.853794 -0.654813
H8    H     H_    0.432467 0.100718 0.854007 0.357867
O15   O     O_3   0.747091 0.150089 0.718543 -0.662169
H9    H     H_    0.773571 0.129754 0.626258 0.312626
Br5   Br    Br    0.742042 0.687008 0.181946 -0.272769

loop_
_geom_bond_atom_site_label_1
_geom_bond_atom_site_label_2
_ccdc_geom_bond_type
C8    Br5   S    
C2    H2    S    
C7    C10   A    
O12   H6    S    
O7    Zn1   S    
C9    N2    A    
C15   O7    A    
O15   H9    S    
N2    Zn1   S    
C6    O15   S    
C9    O9    S    
C5    O13   S    
C19   C20   A    
C13   O12   S    
N1    Zn2   S    
C4    C18   A    
C2    C3    A    
C8    C9    A    
O4    Zn2   S    
C15   O8    A    
C6    O14   S    
O3    Zn1   S    
C1    O1    A    
C11   C13   S    
C5    C6    S    
C3    C14   S    
C14   O6    A    
C7    N1    A    
C13   Br2   S    
C12   O4    A    
O14   H8    S    
C16   Br1   S    
C11   O11   S    
C6    C18   S    
C5    Br4   S    
C1    O2    A    
C1    C19   S    
C10   C11   S    
O6    Zn2   S    
C14   O5    A    
C2    C20   A    
C3    C4    A    
O5    Zn1   S    
C7    C13   S    
C8    N1    A    
O10   H4    S    
O9    H3    S    
C18   C19   A    
C20   Br3   S    
C15   C17   S    
O13   H7    S    
O11   H5    S    
C11   O10   S    
C12   O3    A    
C10   N2    A    
O2    Zn2   S    
C17   H1    S    
C12   C16   S    
C16   C17   D    
O1    Zn1   S    
C4    C5    S    
O8    Zn2   S    
