data_mof_unit_pretest_1210.cif
_audit_creation_date              2012-12-10T17:48:54-0500
_audit_creation_method            fapswitch 2.2
_symmetry_space_group_name_H-M    P1
_symmetry_Int_Tables_number       1
_space_group_crystal_system       triclinic
_cell_length_a                    10.746346
_cell_length_b                    14.69401
_cell_length_c                    14.731307
_cell_angle_alpha                 65.136672
_cell_angle_beta                  103.732516
_cell_angle_gamma                 102.790403
_cell_volume                      2030.64030846

loop_
_atom_site_label
_atom_site_type_symbol
_atom_type_description
_atom_site_fract_x
_atom_site_fract_y
_atom_site_fract_z
_atom_type_partial_charge
C1    C     C_R   0.478745 0.119643 0.312273 0.847113
C2    C     C_R   0.506088 0.360499 0.079666 0.089993
C3    C     C_R   0.486442 0.320966 0.003778 0.167795
C4    C     C_R   0.260049 0.000168 0.500260 0.839917
C5    C     C_R   0.534606 0.467062 0.053484 0.066154
C6    C     C_R   0.529679 0.533049 0.949552 0.065353
C7    C     C_R   0.512040 0.490440 0.876390 -0.224263
C8    C     C_R   0.491819 0.386429 0.903419 -0.227947
C9    C     C_R   0.570796 0.509744 0.127763 -0.220577
C10   C     C_R   0.594330 0.613784 0.100774 -0.233711
C11   C     C_R   0.580016 0.679211 0.999171 0.164184
C12   C     C_3   0.877614 0.998335 0.501990 0.026317
C13   C     C_R   0.545263 0.639602 0.922501 0.088982
C14   C     C_R   0.599507 0.784211 0.973363 -0.201427
C15   C     C_R   0.581925 0.850660 0.872004 -0.198334
C16   C     C_R   0.523191 0.880319 0.687781 0.774305
C17   C     C_R   0.523554 0.708060 0.821194 -0.262585
C18   C     C_R   0.701609 0.276531 0.679904 -0.326561
C19   C     C_R   0.671316 0.197237 0.646763 0.099302
C20   C     C_R   0.530326 0.290540 0.502787 -0.019423
C21   C     C_R   0.558092 0.374702 0.531905 -0.025193
C22   C     C_R   0.643529 0.364684 0.623883 0.165630
C23   C     C_3   0.960940 0.992817 0.606572 0.171145
C24   C     C_R   0.501264 0.466194 0.475366 0.067001
C25   C     C_R   0.524442 0.543413 0.515313 0.096495
C26   C     C_R   0.609207 0.528646 0.608106 -0.243196
C27   C     C_R   0.668702 0.441709 0.660291 -0.207030
C28   C     C_R   0.739990 0.998131 0.502340 0.858210
C29   C     C_R   0.422603 0.483220 0.379991 -0.245641
C30   C     C_R   0.359418 0.568032 0.329367 -0.171607
C31   C     C_R   0.374955 0.640900 0.370010 0.110885
C32   C     C_R   0.460804 0.632140 0.461325 -0.017787
C33   C     C_R   0.306791 0.723851 0.317947 -0.428252
C34   C     C_3   0.926839 0.097641 0.415464 0.163693
C35   C     C_R   0.324367 0.800745 0.355036 0.669260
C36   C     C_R   0.480362 0.714125 0.492732 -0.095889
C37   C     C_3   0.038221 0.904246 0.486964 -0.473410
C38   C     C_3   0.895192 0.903720 0.486435 -0.509612
C39   C     C_3   0.105228 0.994053 0.605145 -0.443600
C40   C     C_3   0.069808 0.095189 0.410911 0.261243
C41   C     C_3   0.122303 0.000249 0.500916 -0.021022
C42   C     C_3   0.140878 0.874996 0.247389 0.009334
C43   C     C_3   0.147838 0.918328 0.133884 -0.349429
C44   C     C_3   0.015917 0.900734 0.072037 -0.917905
C45   C     C_R   0.474393 0.187176 0.204967 -0.034128
C46   C     C_3   0.155558 0.239843 0.456127 0.057952
C47   C     C_3   0.106259 0.341667 0.391008 -0.342894
C48   C     C_3   0.106892 0.400665 0.455240 -0.895115
C49   C     C_R   0.542635 0.812685 0.795447 -0.048140
C50   C     C_R   0.462097 0.215964 0.029186 -0.206249
C51   C     C_R   0.457355 0.149336 0.129439 -0.183636
C52   C     C_R   0.494655 0.291801 0.179163 -0.228986
Cu1   Cu    Cu3+1 0.465900 0.918260 0.475680 0.968320
Cu2   Cu    Cu3+1 0.534100 0.081740 0.524320 0.964997
H1    H     H_    0.071548 0.834253 0.549192 0.205093
H2    H     H_    0.499468 0.317912 0.238203 0.143685
H3    H     H_    0.047862 0.901709 0.414744 0.183799
H4    H     H_    0.517427 0.535401 0.797512 0.140564
H5    H     H_    0.585991 0.464927 0.208037 0.146333
H6    H     H_    0.627837 0.814886 0.031695 0.133078
H7    H     H_    0.733234 0.433792 0.731213 0.146915
H8    H     H_    0.550816 0.717001 0.557277 0.141723
H9    H     H_    0.297231 0.576488 0.257395 0.144078
H10   H     H_    0.768271 0.268207 0.749946 0.140072
H11   H     H_    0.714513 0.128544 0.691040 0.139858
H12   H     H_    0.918736 0.161709 0.433370 0.189287
H13   H     H_    0.462027 0.289978 0.436516 0.136658
H14   H     H_    0.836685 0.900437 0.414452 0.198720
H15   H     H_    0.631329 0.582959 0.642962 0.127818
H16   H     H_    0.407595 0.431975 0.342153 0.135008
H17   H     H_    0.242981 0.728697 0.247713 0.147694
H18   H     H_    0.860423 0.833364 0.548500 0.186092
H19   H     H_    0.137997 0.923046 0.665781 0.140065
H20   H     H_    0.926306 0.919957 0.666455 0.100814
H21   H     H_    0.066602 0.080769 0.341958 0.122021
H22   H     H_    0.981480 0.055015 0.703323 0.318303
H23   H     H_    0.168447 0.055982 0.624955 0.182827
H24   H     H_    0.079166 0.919835 0.258174 0.153360
H25   H     H_    0.090982 0.795575 0.274573 0.124843
H26   H     H_    0.181554 0.001090 0.108105 0.224273
H27   H     H_    0.218480 0.883215 0.119375 0.210067
H28   H     H_    0.981717 0.818307 0.094822 0.257239
H29   H     H_    0.023658 0.934003 0.990211 0.252693
H30   H     H_    0.944168 0.937265 0.083600 0.253076
H31   H     H_    0.256701 0.254111 0.492385 0.162225
H32   H     H_    0.099627 0.197670 0.518667 0.175473
H33   H     H_    0.168045 0.387094 0.332039 0.226230
H34   H     H_    0.479327 0.357085 0.844995 0.149594
H35   H     H_    0.006181 0.329415 0.351497 0.231302
H36   H     H_    0.039045 0.358727 0.510462 0.264869
H37   H     H_    0.075726 0.475700 0.405359 0.257032
H38   H     H_    0.205550 0.412648 0.497097 0.264041
H39   H     H_    0.852179 0.058475 0.299293 0.316707
H40   H     H_    0.488052 0.681496 0.760719 0.151520
H41   H     H_    0.597840 0.931416 0.853696 0.149596
H42   H     H_    0.622239 0.643193 0.160093 0.148724
H43   H     H_    0.448011 0.185394 0.971559 0.131661
H44   H     H_    0.441409 0.068554 0.147857 0.164018
N1    N     N_R   0.585360 0.204570 0.560800 -0.180749
N2    N     N_R   0.414550 0.795430 0.439160 -0.207307
O1    O     O_R   0.455060 0.022100 0.338110 -0.537477
O2    O     O_3   0.265338 0.888302 0.303521 -0.589160
O3    O     O_3   0.155091 0.188418 0.393444 -0.611539
O4    O     O_3   0.846613 0.112689 0.320813 -0.750087
O5    O     O_R   0.512640 0.160150 0.379180 -0.592247
O6    O     O_R   0.288900 0.930980 0.479450 -0.566808
O7    O     O_R   0.346480 0.069030 0.520520 -0.570365
O8    O     O_R   0.487360 0.839850 0.620820 -0.600582
O9    O     O_R   0.544940 0.977900 0.661890 -0.600693
O10   O     O_R   0.653520 0.930970 0.479480 -0.604419
O11   O     O_R   0.711100 0.069020 0.520550 -0.538810
O12   O     O_3   0.947395 0.073213 0.629962 -0.758834

loop_
_geom_bond_atom_site_label_1
_geom_bond_atom_site_label_2
_ccdc_geom_bond_type
Cu1   O10   S    
C20   H13   S    
C44   H29   S    
C18   H10   S    
C34   H12   S    
C46   H32   S    
C7    C8    A    
C39   C41   S    
Cu1   Cu2   S    
C23   O12   S    
C12   C23   S    
C26   C27   A    
C29   C30   A    
Cu2   O7    S    
C12   C28   S    
C34   C40   S    
C32   C36   A    
C44   H28   S    
C15   H41   S    
C30   C31   A    
C11   C14   A    
C4    C41   S    
C45   C51   A    
C18   C19   A    
C24   C29   A    
C27   H7    S    
Cu1   O6    S    
C47   C48   S    
Cu1   O1    S    
C48   H37   S    
C31   C33   A    
C9    C10   A    
C7    H4    S    
C46   H31   S    
C35   O2    S    
C51   H44   S    
C15   C49   A    
C42   H25   S    
Cu1   N2    S    
C48   H36   S    
C21   C22   A    
C12   C38   S    
C47   H35   S    
C36   H8    S    
C42   O2    S    
H39   O4    S    
C3    C50   A    
C16   O9    A    
C28   O11   A    
C4    O7    A    
C38   H18   S    
C24   C25   A    
C3    C8    A    
C17   C49   A    
C19   N1    A    
C45   C52   A    
C28   O10   A    
C43   H26   S    
C4    O6    A    
C34   O4    S    
Cu2   O9    S    
C9    H5    S    
C47   H33   S    
C43   C44   S    
C5    C9    A    
C37   C38   S    
C31   C32   A    
C10   H42   S    
H22   O12   S    
C50   C51   A    
C36   N2    A    
C16   C49   S    
C2    C52   A    
C40   C41   S    
C38   H14   S    
C42   H24   S    
C22   C27   A    
C43   H27   S    
Cu2   N1    S    
C2    C5    A    
C42   C43   S    
C23   H20   S    
C12   C34   S    
C35   N2    A    
C1    O1    A    
C29   H16   S    
C39   H23   S    
C46   C47   S    
C50   H43   S    
Cu2   O5    S    
C18   C22   A    
C44   H30   S    
C6    C7    A    
C14   H6    S    
C46   O3    S    
C40   H21   S    
C13   C17   A    
C2    C3    A    
C25   C26   A    
C40   O3    S    
C11   C13   A    
Cu1   O8    S    
C1    C45   S    
C5    C6    A    
C20   N1    A    
C25   C32   A    
C23   C39   S    
C33   C35   A    
Cu2   O11   S    
C19   H11   S    
C39   H19   S    
C37   C41   S    
C10   C11   A    
C16   O8    A    
C33   H17   S    
C37   H1    S    
C20   C21   A    
C48   H38   S    
C21   C24   A    
C26   H15   S    
C14   C15   A    
C17   H40   S    
C8    H34   S    
C30   H9    S    
C37   H3    S    
C52   H2    S    
C1    O5    A    
C6    C13   A    
