data_mof_unit_pretest_1766.cif
_audit_creation_date              2012-10-26T19:54:06-0400
_audit_creation_method            fapswitch 2.2
_symmetry_space_group_name_H-M    P1
_symmetry_Int_Tables_number       1
_space_group_crystal_system       triclinic
_cell_length_a                    15.877078
_cell_length_b                    16.006444
_cell_length_c                    14.768903
_cell_angle_alpha                 90.02303
_cell_angle_beta                  89.999493
_cell_angle_gamma                 89.992181
_cell_volume                      3753.30309458

loop_
_atom_site_label
_atom_site_type_symbol
_atom_type_description
_atom_site_fract_x
_atom_site_fract_y
_atom_site_fract_z
_atom_type_partial_charge
C1    C     C_R   0.500025 0.340869 0.499958 0.547993
C2    C     C_1   0.499987 0.748179 0.500145 0.017861
C3    C     C_R   0.553561 0.553444 0.952128 -0.097022
C4    C     C_R   0.446439 0.446556 0.047872 -0.097022
C5    C     C_R   0.499980 0.500015 0.902865 0.003925
C6    C     C_R   0.500020 0.499985 0.097135 0.003925
C7    C     C_R   0.446418 0.446571 0.952090 -0.102274
C8    C     C_R   0.553581 0.553429 0.047910 -0.102274
C9    C     C_1   0.499970 0.500020 0.802716 0.140876
C10   C     C_1   0.500030 0.499979 0.197284 0.140877
C11   C     C_R   0.339358 0.499985 0.499996 0.549105
C12   C     C_R   0.499975 0.659131 0.500041 0.547993
C13   C     C_R   0.660642 0.500015 0.500004 0.549104
C14   C     C_3   0.971981 0.431599 0.543211 -0.097699
C15   C     C_3   0.028019 0.568401 0.456788 -0.097699
C16   C     C_3   0.028027 0.431239 0.457394 -0.097124
C17   C     C_3   0.971973 0.568761 0.542606 -0.097124
C18   C     C_1   0.249663 0.499983 0.500018 -0.016024
C19   C     C_1   0.750337 0.500016 0.499982 -0.016024
C20   C     C_3   0.028004 0.500352 0.585831 -0.097474
C21   C     C_3   0.971996 0.499648 0.414169 -0.097474
C22   C     C_3   0.082517 0.499993 0.500013 0.047505
C23   C     C_R   0.500043 0.912700 0.501018 0.002868
C24   C     C_3   0.917483 0.500007 0.499987 0.047505
C25   C     C_1   0.174139 0.499986 0.500022 -0.047341
C26   C     C_1   0.825861 0.500014 0.499978 -0.047341
C27   C     C_R   0.504019 0.957224 0.582903 0.253060
C28   C     C_R   0.495981 0.042776 0.417097 0.253060
C29   C     C_R   0.499957 0.087300 0.498982 0.002868
C30   C     C_R   0.496045 0.955554 0.418546 -0.113055
C31   C     C_R   0.503954 0.044446 0.581454 -0.113055
C32   C     C_1   0.500008 0.823173 0.500467 0.015832
C33   C     C_1   0.499991 0.176827 0.499533 0.015832
C34   C     C_1   0.500013 0.251821 0.499855 0.017861
Cl1   Cl    Cl    0.509117 0.905612 0.688056 -0.564666
Cl2   Cl    Cl    0.490883 0.094387 0.311944 -0.564666
Cu1   Cu    Cu3+1 0.500020 0.500000 0.589220 1.021166
Cu2   Cu    Cu3+1 0.499980 0.500000 0.410780 1.021166
H1    H     H_    0.052391 0.374791 0.422418 0.122520
H2    H     H_    0.404386 0.404657 0.916407 0.120646
H3    H     H_    0.595580 0.595369 0.916475 0.128192
H4    H     H_    0.404420 0.404631 0.083524 0.128192
H5    H     H_    0.947608 0.625209 0.577582 0.122520
H6    H     H_    0.947625 0.375446 0.578685 0.121084
H7    H     H_    0.052375 0.624554 0.421315 0.121084
H8    H     H_    0.947650 0.499359 0.343708 0.120371
H9    H     H_    0.052350 0.500641 0.656292 0.120371
H10   H     H_    0.507022 0.078800 0.644635 0.157217
H11   H     H_    0.492978 0.921200 0.355365 0.157217
H12   H     H_    0.595614 0.595343 0.083593 0.120646
N1    N     N_1   0.500030 0.499980 0.276710 -0.185018
N2    N     N_1   0.499970 0.500020 0.723290 -0.185018
O1    O     O_R   0.500040 0.380310 0.575320 -0.499188
O2    O     O_R   0.499960 0.619690 0.424680 -0.499188
O3    O     O_R   0.500000 0.380310 0.424640 -0.472791
O4    O     O_R   0.500000 0.619690 0.575360 -0.472791
O5    O     O_R   0.379100 0.499990 0.575330 -0.490356
O6    O     O_R   0.620900 0.500010 0.424670 -0.490356
O7    O     O_R   0.379060 0.499990 0.424640 -0.490189
O8    O     O_R   0.620940 0.500010 0.575360 -0.490188

loop_
_geom_bond_atom_site_label_1
_geom_bond_atom_site_label_2
_ccdc_geom_bond_type
C6    C10   S    
C16   C22   S    
C7    H2    S    
C17   H5    S    
C11   C18   S    
C5    C9    S    
Cu1   Cu2   S    
Cu2   N1    S    
C23   C27   A    
Cu2   O2    S    
Cu1   O1    S    
C23   C32   S    
C28   C30   A    
C33   C34   T    
C1    O3    A    
C2    C12   S    
C29   C31   A    
C13   O8    A    
C12   O4    A    
Cu1   O8    S    
C9    N2    T    
C16   C21   S    
C18   C25   T    
C4    H4    S    
C4    C7    A    
C11   O7    A    
C10   N1    T    
C2    C32   T    
C4    C6    A    
C28   C29   A    
C30   H11   S    
C24   C26   S    
C1    C34   S    
C3    C8    A    
C5    C7    A    
C31   H10   S    
Cu1   O5    S    
C14   C16   S    
C17   C24   S    
C15   H7    S    
C16   H1    S    
C27   C31   A    
Cu2   O7    S    
C20   H9    S    
C23   C30   A    
C8    H12   S    
C15   C21   S    
C17   C20   S    
C28   Cl2   S    
C14   C20   S    
C14   H6    S    
C21   H8    S    
C21   C24   S    
C14   C24   S    
C15   C17   S    
Cu1   N2    S    
C1    O1    A    
C3    H3    S    
C13   C19   S    
C6    C8    A    
C13   O6    A    
C27   Cl1   S    
C11   O5    A    
Cu1   O4    S    
Cu2   O6    S    
C15   C22   S    
C12   O2    A    
Cu2   O3    S    
C29   C33   S    
C20   C22   S    
C3    C5    A    
C22   C25   S    
C19   C26   T    
