data_mof_unit_pretest_385.cif
_audit_creation_date              2012-12-10T17:20:50-0500
_audit_creation_method            fapswitch 2.2
_symmetry_space_group_name_H-M    P1
_symmetry_Int_Tables_number       1
_space_group_crystal_system       triclinic
_cell_length_a                    14.340402
_cell_length_b                    10.789334
_cell_length_c                    9.630784
_cell_angle_alpha                 90.42103
_cell_angle_beta                  90.439362
_cell_angle_gamma                 93.008205
_cell_volume                      1487.9656223

loop_
_atom_site_label
_atom_site_type_symbol
_atom_type_description
_atom_site_fract_x
_atom_site_fract_y
_atom_site_fract_z
_atom_type_partial_charge
C1    C     C_R   0.496366 0.262583 0.499607 0.778234
C2    C     C_1   0.771137 0.500578 0.501146 -0.199223
C3    C     C_R   0.350646 0.119974 0.650375 -0.171864
C4    C     C_R   0.283656 0.051038 0.725416 -0.090200
C5    C     C_R   0.284271 0.922242 0.726740 -0.131558
C6    C     C_R   0.351896 0.861553 0.653071 -0.172203
C7    C     C_R   0.421905 0.929563 0.578572 0.100965
C8    C     C_R   0.421289 0.060696 0.577327 0.093149
C9    C     C_R   0.489489 0.128315 0.498817 -0.097929
C10   C     C_R   0.553434 0.067281 0.418087 -0.178951
C11   C     C_R   0.554005 0.939454 0.419153 -0.200385
C12   C     C_R   0.331244 0.499509 0.499603 0.780991
C13   C     C_R   0.490612 0.870503 0.500906 -0.090103
C14   C     C_R   0.623331 0.667352 0.146168 -0.121896
C15   C     C_R   0.682921 0.749800 0.075261 -0.208594
C16   C     C_R   0.682780 0.749714 0.932168 -0.195006
C17   C     C_R   0.623042 0.667174 0.858967 -0.121790
C18   C     C_R   0.560116 0.582511 0.926719 0.196781
C19   C     C_R   0.560140 0.582593 0.076047 0.197372
C20   C     C_R   0.442973 0.418963 0.070550 0.061291
C21   C     C_R   0.443628 0.420837 0.922831 -0.021202
C22   C     C_R   0.497216 0.737093 0.500399 0.765111
C23   C     C_R   0.668751 0.500421 0.500413 0.795327
C24   C     C_1   0.228884 0.499742 0.498933 -0.197585
C25   C     C_1   0.143445 0.499994 0.499132 -0.002708
C26   C     C_1   0.042748 0.500283 0.499790 0.006623
C27   C     C_1   0.957299 0.500475 0.500424 0.005424
C28   C     C_1   0.856592 0.500597 0.501024 -0.006617
Cu1   Cu    Cu3+1 0.499990 0.499990 0.640660 0.923738
Cu2   Cu    Cu3+1 0.500010 0.500010 0.359340 0.921462
H1    H     H_    0.604849 0.119167 0.356648 0.154533
H2    H     H_    0.729882 0.813506 0.877133 0.151402
H3    H     H_    0.629842 0.673357 0.749531 0.191592
H4    H     H_    0.397833 0.357288 0.863341 0.177163
H5    H     H_    0.344921 0.219396 0.648077 0.135386
H6    H     H_    0.230166 0.097713 0.781048 0.154732
H7    H     H_    0.231236 0.868948 0.783398 0.142503
H8    H     H_    0.347162 0.761334 0.653278 0.156154
H9    H     H_    0.605744 0.894125 0.358215 0.137613
H10   H     H_    0.630666 0.673871 0.255734 0.185843
H11   H     H_    0.730136 0.813675 0.132125 0.147141
N1    N     N_R   0.500820 0.501210 0.147910 -0.236113
N2    N     N_R   0.500850 0.501290 0.852040 -0.216823
O1    O     O_R   0.499990 0.319640 0.618810 -0.567860
O2    O     O_R   0.500000 0.319660 0.381240 -0.592824
O3    O     O_R   0.376050 0.499990 0.618810 -0.567151
O4    O     O_R   0.376060 0.500010 0.381240 -0.579936
O5    O     O_R   0.500000 0.680340 0.618760 -0.596224
O6    O     O_R   0.500010 0.680360 0.381190 -0.579551
O7    O     O_R   0.623940 0.499990 0.618760 -0.567779
O8    O     O_R   0.623950 0.500010 0.381190 -0.571937
C29   C     C_2   0.378325 0.324747 0.136245 0.369664
H12   H     H_    0.364114 0.324639 0.245262 0.137846
O9    O     O_2   0.338208 0.242884 0.066594 -0.584024

loop_
_geom_bond_atom_site_label_1
_geom_bond_atom_site_label_2
_ccdc_geom_bond_type
C22   O5    A    
Cu2   O8    S    
C4    H6    S    
C24   C25   T    
Cu1   Cu2   S    
C5    H7    S    
C16   H2    S    
C9    C10   A    
C12   C24   S    
C1    O1    A    
C23   O8    A    
C19   N1    A    
C3    H5    S    
Cu1   O3    S    
Cu1   N2    S    
C6    H8    S    
C17   C18   A    
C7    C8    A    
C20   C29   S    
C18   N2    A    
C29   H12   S    
C11   H9    S    
C20   N1    A    
C11   C13   A    
C1    O2    A    
C26   C27   T    
C6    C7    A    
C17   H3    S    
C12   O4    A    
C4    C5    A    
C10   H1    S    
Cu2   O6    S    
C29   O9    D    
C13   C22   S    
C3    C8    A    
Cu1   O7    S    
C22   O6    A    
Cu1   O1    S    
C5    C6    A    
C10   C11   A    
Cu1   O5    S    
C14   H10   S    
C3    C4    A    
Cu2   O4    S    
C7    C13   A    
C1    C9    S    
C20   C21   A    
C15   H11   S    
C12   O3    A    
C18   C19   A    
C2    C23   S    
C14   C15   A    
C16   C17   A    
C23   O7    A    
C2    C28   T    
C21   H4    S    
Cu2   O2    S    
C25   C26   S    
C21   N2    A    
C14   C19   A    
Cu2   N1    S    
C15   C16   A    
C8    C9    A    
C27   C28   S    
