data_mof_unit_pretest_1230.cif
_audit_creation_date              2012-12-11T14:30:18-0500
_audit_creation_method            fapswitch 2.2
_symmetry_space_group_name_H-M    P1
_symmetry_Int_Tables_number       1
_space_group_crystal_system       monoclinic
_cell_length_a                    12.690801
_cell_length_b                    12.690801
_cell_length_c                    27.008737
_cell_angle_alpha                 90.0
_cell_angle_beta                  90.0
_cell_angle_gamma                 120.000216
_cell_volume                      3767.14234394

loop_
_atom_site_label
_atom_site_type_symbol
_atom_type_description
_atom_site_fract_x
_atom_site_fract_y
_atom_site_fract_z
_atom_type_partial_charge
C1    C     C_R   0.560004 0.455271 0.822879 0.541705
C2    C     C_R   0.456011 0.557217 0.178134 0.540721
C3    C     C_R   0.925298 0.287623 0.466182 -0.072940
C4    C     C_R   0.362327 0.074703 0.033818 -0.072939
C5    C     C_R   0.712377 0.637675 0.466182 -0.072938
C6    C     C_R   0.363945 0.085042 0.517295 -0.071117
C7    C     C_R   0.914957 0.278902 0.982705 -0.071118
C8    C     C_R   0.721098 0.636056 0.517295 -0.071117
C9    C     C_R   0.363945 0.085043 0.982705 -0.071117
C10   C     C_R   0.914958 0.278902 0.517295 -0.071118
C11   C     C_R   0.721098 0.636055 0.982705 -0.071116
C12   C     C_R   0.442783 0.898794 0.321866 0.540720
C13   C     C_R   0.101206 0.543989 0.178134 0.540720
C14   C     C_R   0.971494 0.492665 0.977200 0.011048
C15   C     C_R   0.521172 0.028506 0.522800 0.011048
C16   C     C_R   0.507335 0.478828 0.977200 0.011048
C17   C     C_R   0.971494 0.492665 0.522800 0.011048
C18   C     C_R   0.521172 0.028507 0.977200 0.011048
C19   C     C_R   0.507335 0.478828 0.522800 0.011048
C20   C     C_R   0.516778 0.014223 0.471112 0.011299
C21   C     C_R   0.895267 0.439996 0.677121 0.541705
C22   C     C_R   0.985778 0.502556 0.028888 0.011299
C23   C     C_R   0.497444 0.483222 0.471112 0.011299
C24   C     C_R   0.516778 0.014223 0.028888 0.011299
C25   C     C_R   0.985778 0.502556 0.471112 0.011299
C26   C     C_R   0.497444 0.483221 0.028888 0.011298
C27   C     C_R   0.028334 0.706743 0.972021 0.233445
C28   C     C_R   0.678409 0.971667 0.527979 0.233445
C29   C     C_R   0.293257 0.321590 0.972021 0.233445
C30   C     C_R   0.028333 0.706743 0.527979 0.233445
C31   C     C_R   0.678409 0.971666 0.972021 0.233445
C32   C     C_R   0.544729 0.104733 0.822879 0.541705
C33   C     C_R   0.293257 0.321589 0.527979 0.233445
C34   C     C_R   0.674897 0.958672 0.476038 0.238449
C35   C     C_R   0.041328 0.716226 0.023963 0.238449
C36   C     C_R   0.283774 0.325102 0.476037 0.238449
C37   C     C_R   0.674897 0.958671 0.023962 0.238449
C38   C     C_R   0.041328 0.716225 0.476037 0.238449
C39   C     C_R   0.283774 0.325102 0.023962 0.238450
C40   C     C_R   0.972701 0.579431 0.896692 -0.113915
C41   C     C_R   0.606729 0.027299 0.603308 -0.113915
C42   C     C_R   0.420569 0.393270 0.896692 -0.113915
C43   C     C_R   0.560004 0.455271 0.677121 0.541705
C44   C     C_R   0.972701 0.579431 0.603308 -0.113915
C45   C     C_R   0.606729 0.027298 0.896692 -0.113915
C46   C     C_R   0.420569 0.393270 0.603308 -0.113915
C47   C     C_R   0.574729 0.949646 0.396674 -0.106801
C48   C     C_R   0.050354 0.625083 0.103326 -0.106801
C49   C     C_R   0.374917 0.425270 0.396674 -0.106801
C50   C     C_R   0.574729 0.949646 0.103326 -0.106801
C51   C     C_R   0.050354 0.625083 0.396673 -0.106801
C52   C     C_R   0.374916 0.425271 0.103326 -0.106801
C53   C     C_R   0.040019 0.525129 0.130074 -0.019749
C54   C     C_R   0.895267 0.439996 0.822879 0.541704
C55   C     C_R   0.485111 0.959981 0.369926 -0.019749
C56   C     C_R   0.474870 0.514889 0.130074 -0.019749
C57   C     C_R   0.040019 0.525129 0.369926 -0.019749
C58   C     C_R   0.485111 0.959981 0.130074 -0.019749
C59   C     C_R   0.474870 0.514889 0.369926 -0.019749
C60   C     C_R   0.528510 0.061575 0.625660 -0.013308
C61   C     C_R   0.938425 0.466935 0.874340 -0.013308
C62   C     C_R   0.533065 0.471490 0.625660 -0.013308
C63   C     C_R   0.528510 0.061575 0.874340 -0.013308
C64   C     C_R   0.938425 0.466935 0.625660 -0.013308
C65   C     C_R   0.544729 0.104733 0.677121 0.541705
C66   C     C_R   0.533065 0.471490 0.874340 -0.013308
C67   C     C_R   0.992142 0.594396 0.948334 -0.028325
C68   C     C_R   0.602253 0.007858 0.551666 -0.028325
C69   C     C_R   0.405604 0.397746 0.948334 -0.028326
C70   C     C_R   0.992142 0.594395 0.551666 -0.028325
C71   C     C_R   0.602253 0.007858 0.948334 -0.028325
C72   C     C_R   0.405604 0.397746 0.551666 -0.028325
C73   C     C_R   0.591230 0.976039 0.447620 -0.027234
C74   C     C_R   0.023962 0.615191 0.052380 -0.027234
C75   C     C_R   0.384809 0.408770 0.447620 -0.027234
C76   C     C_R   0.456011 0.557217 0.321866 0.540721
C77   C     C_R   0.591229 0.976038 0.052380 -0.027234
C78   C     C_R   0.023961 0.615191 0.447620 -0.027234
C79   C     C_R   0.384808 0.408770 0.052380 -0.027234
C80   C     C_R   0.925366 0.369574 0.903420 -0.098963
C81   C     C_R   0.444208 0.074634 0.596579 -0.098963
C82   C     C_R   0.630426 0.555791 0.903421 -0.098963
C83   C     C_R   0.925366 0.369574 0.596580 -0.098964
C84   C     C_R   0.444209 0.074635 0.903421 -0.098963
C85   C     C_R   0.630426 0.555792 0.596579 -0.098963
C86   C     C_R   0.421499 0.010309 0.392591 -0.114572
C87   C     C_R   0.442783 0.898794 0.178134 0.540720
C88   C     C_R   0.989691 0.411190 0.107408 -0.114572
C89   C     C_R   0.588810 0.578501 0.392591 -0.114572
C90   C     C_R   0.421500 0.010309 0.107409 -0.114572
C91   C     C_R   0.989691 0.411190 0.392591 -0.114572
C92   C     C_R   0.588810 0.578501 0.107409 -0.114571
C93   C     C_R   0.938172 0.380440 0.954345 0.017635
C94   C     C_R   0.442268 0.061827 0.545655 0.017636
C95   C     C_R   0.619560 0.557732 0.954345 0.017636
C96   C     C_R   0.938173 0.380440 0.545655 0.017635
C97   C     C_R   0.442268 0.061828 0.954345 0.017636
C98   C     C_R   0.101205 0.543988 0.321866 0.540720
C99   C     C_R   0.619560 0.557732 0.545655 0.017636
C100  C     C_R   0.435196 0.035678 0.443001 0.020200
C101  C     C_R   0.964322 0.399517 0.056999 0.020200
C102  C     C_R   0.600482 0.564805 0.443001 0.020200
C103  C     C_R   0.435196 0.035678 0.056999 0.020201
C104  C     C_R   0.964323 0.399517 0.443001 0.020200
C105  C     C_R   0.600482 0.564804 0.056999 0.020201
C106  C     C_R   0.925298 0.287623 0.033818 -0.072939
C107  C     C_R   0.362326 0.074702 0.466182 -0.072939
C108  C     C_R   0.712377 0.637674 0.033818 -0.072938
Cl1   Cl    Cl    0.075525 0.854577 0.053054 -0.518736
Cl2   Cl    Cl    0.777761 0.940225 0.937175 -0.491485
Cl3   Cl    Cl    0.059774 0.837537 0.562824 -0.491486
Cl4   Cl    Cl    0.162463 0.222237 0.937175 -0.491484
Cl5   Cl    Cl    0.779053 0.924476 0.446946 -0.518735
Cl6   Cl    Cl    0.145422 0.220946 0.053054 -0.518734
Cl7   Cl    Cl    0.075524 0.854577 0.446946 -0.518736
Cl8   Cl    Cl    0.779052 0.924475 0.053053 -0.518735
Cl9   Cl    Cl    0.145422 0.220945 0.446946 -0.518734
Cl10  Cl    Cl    0.777762 0.940226 0.562825 -0.491486
Cl11  Cl    Cl    0.059775 0.837537 0.937175 -0.491486
Cl12  Cl    Cl    0.162463 0.222236 0.562825 -0.491484
Cr1   Cr    Cr6+3 0.487630 0.241180 0.750000 1.062883
Cr2   Cr    Cr6+3 0.753550 0.512370 0.750000 1.062883
Cr3   Cr    Cr6+3 0.758820 0.246450 0.750000 1.062882
Cr4   Cr    Cr6+3 0.241180 0.487630 0.250000 1.049835
Cr5   Cr    Cr6+3 0.512370 0.753550 0.250000 1.049835
Cr6   Cr    Cr6+3 0.246450 0.758820 0.250000 1.049835
H1    H     H_    0.088094 0.712440 0.121557 0.191524
H2    H     H_    0.672187 0.019146 0.873758 0.183938
H3    H     H_    0.980853 0.653041 0.626241 0.183938
H4    H     H_    0.346958 0.327812 0.873758 0.183938
H5    H     H_    0.979191 0.333250 0.128106 0.157020
H6    H     H_    0.354060 0.020809 0.371894 0.157020
H7    H     H_    0.666750 0.645940 0.128106 0.157020
H8    H     H_    0.979191 0.333250 0.371894 0.157020
H9    H     H_    0.354061 0.020810 0.128106 0.157020
H10   H     H_    0.666749 0.645941 0.371894 0.157020
H11   H     H_    0.384435 0.102978 0.613105 0.165039
H12   H     H_    0.624346 0.911906 0.378443 0.191523
H13   H     H_    0.897021 0.281456 0.886895 0.165039
H14   H     H_    0.718544 0.615566 0.613105 0.165039
H15   H     H_    0.384435 0.102979 0.886895 0.165039
H16   H     H_    0.897022 0.281457 0.613105 0.165039
H17   H     H_    0.718544 0.615565 0.886895 0.165039
H18   H     H_    0.907071 0.207885 0.055085 0.200448
H19   H     H_    0.300816 0.092929 0.444914 0.200448
H20   H     H_    0.792115 0.699185 0.055086 0.200448
H21   H     H_    0.907072 0.207886 0.444915 0.200449
H22   H     H_    0.300816 0.092930 0.055086 0.200448
H23   H     H_    0.287559 0.375653 0.121557 0.191523
H24   H     H_    0.792114 0.699186 0.444914 0.200449
H25   H     H_    0.303119 0.110128 0.534801 0.201627
H26   H     H_    0.889872 0.192990 0.965199 0.201627
H27   H     H_    0.807010 0.696882 0.534801 0.201628
H28   H     H_    0.303120 0.110129 0.965199 0.201627
H29   H     H_    0.889873 0.192991 0.534801 0.201628
H30   H     H_    0.807010 0.696881 0.965199 0.201627
H31   H     H_    0.088093 0.712440 0.378442 0.191523
H32   H     H_    0.624346 0.911906 0.121557 0.191523
H33   H     H_    0.287559 0.375653 0.378443 0.191523
H34   H     H_    0.672187 0.019146 0.626242 0.183938
H35   H     H_    0.980854 0.653041 0.873758 0.183938
H36   H     H_    0.346958 0.327812 0.626241 0.183938
O1    O     O_R   0.460870 0.120930 0.805240 -0.501657
O2    O     O_R   0.120930 0.460870 0.194760 -0.507068
O3    O     O_R   0.539130 0.660060 0.305240 -0.507068
O4    O     O_R   0.339940 0.879070 0.194760 -0.507068
O5    O     O_R   0.498910 0.350470 0.801870 -0.499786
O6    O     O_R   0.851560 0.501090 0.698130 -0.499786
O7    O     O_R   0.649530 0.148440 0.801870 -0.499786
O8    O     O_R   0.498910 0.350470 0.698130 -0.499786
O9    O     O_R   0.851560 0.501090 0.801870 -0.499786
O10   O     O_R   0.649530 0.148440 0.698130 -0.499786
O11   O     O_R   0.350470 0.498910 0.301870 -0.500539
O12   O     O_R   0.660060 0.539130 0.694760 -0.501656
O13   O     O_R   0.501090 0.851560 0.198130 -0.500539
O14   O     O_R   0.148440 0.649530 0.301870 -0.500538
O15   O     O_R   0.350470 0.498910 0.198130 -0.500539
O16   O     O_R   0.501090 0.851560 0.301870 -0.500539
O17   O     O_R   0.148440 0.649530 0.198130 -0.500538
O18   O     O_3   0.666667 0.333333 0.750000 -0.260287
O19   O     O_3   0.333333 0.666667 0.250000 -0.245297
O20   O     O_R   0.879070 0.339940 0.805240 -0.501656
O21   O     O_R   0.460870 0.120930 0.694760 -0.501657
O22   O     O_R   0.660060 0.539130 0.805240 -0.501656
O23   O     O_R   0.879070 0.339940 0.694760 -0.501656
O24   O     O_R   0.120930 0.460870 0.305240 -0.507068
O25   O     O_R   0.539130 0.660060 0.194760 -0.507068
O26   O     O_R   0.339940 0.879070 0.305240 -0.507068

loop_
_geom_bond_atom_site_label_1
_geom_bond_atom_site_label_2
_ccdc_geom_bond_type
C3    C104  A    
C12   O16   A    
C32   O7    A    
C4    C103  A    
C35   C74   A    
C3    H21   S    
C81   C94   A    
C89   C102  A    
C45   C71   A    
Cr1   O1    S    
C29   Cl4   S    
Cr5   O3    S    
C92   H7    S    
C91   C104  A    
Cr2   O12   S    
C58   C87   S    
C15   C94   A    
C88   C101  A    
C37   Cl8   S    
C44   C64   A    
C34   Cl5   S    
Cr2   O18   S    
C22   C101  A    
C46   C62   A    
C18   C24   A    
C84   C97   A    
C76   O11   A    
C28   C68   A    
C8    C99   A    
Cr3   O20   S    
C107  H19   S    
C43   O12   A    
C87   O4    A    
C15   C68   A    
C45   H2    S    
C12   O26   A    
C32   O1    A    
C101  C106  A    
C33   C36   A    
C30   C38   A    
C59   C89   A    
C2    O25   A    
C21   C64   S    
C33   C72   A    
C30   C70   A    
C1    O22   A    
C36   Cl9   S    
C52   H23   S    
C6    C94   A    
C40   C67   A    
C6    C107  A    
C49   C75   A    
C44   C70   A    
C51   C57   A    
C18   C97   A    
C41   C68   A    
C52   C79   A    
C86   C100  A    
C14   C93   A    
C13   C53   S    
Cr3   O10   S    
C35   Cl1   S    
Cr1   O21   S    
C21   O6    A    
C31   C71   A    
Cr1   O8    S    
C28   C34   A    
C17   C70   A    
C89   H10   S    
C19   C72   A    
C15   C20   A    
Cr1   O5    S    
C26   C105  A    
C62   C85   A    
C43   O8    A    
Cr1   O18   S    
C29   C69   A    
C16   C26   A    
C48   C53   A    
C7    C93   A    
C105  C108  A    
Cr2   O6    S    
C65   O10   A    
Cr5   O19   S    
C25   C78   A    
C50   C58   A    
C48   C74   A    
Cr6   O17   S    
C42   C66   A    
C47   C73   A    
C19   C99   A    
C82   H17   S    
Cr4   O11   S    
C38   C78   A    
C27   C35   A    
C44   H3    S    
C81   H11   S    
C37   C77   A    
C45   C63   A    
C42   C69   A    
C50   H32   S    
C5    H24   S    
C31   C37   A    
C39   C79   A    
Cr3   O23   S    
C19   C23   A    
C64   C83   A    
C85   C99   A    
C36   C75   A    
C66   C82   A    
C41   H34   S    
C98   O14   A    
C60   C81   A    
C24   C77   A    
C20   C100  A    
C10   C96   A    
C14   C67   A    
C39   Cl6   S    
C29   C39   A    
C54   O20   A    
C1    C66   S    
C7    C106  A    
C76   O3    A    
C42   H4    S    
C17   C96   A    
C21   O23   A    
C8    H27   S    
C58   C90   A    
C85   H14   S    
Cr4   O15   S    
Cr3   O7    S    
C11   H30   S    
C38   Cl7   S    
C6    H25   S    
C2    O15   A    
C60   C65   S    
C5    C8    A    
C22   C74   A    
Cr5   O13   S    
C50   C77   A    
Cr5   O16   S    
Cr6   O14   S    
Cr2   O22   S    
C13   O2    A    
C47   C55   A    
C65   O21   A    
C11   C95   A    
C18   C71   A    
C5    C102  A    
C100  C107  A    
C9    C97   A    
C82   C95   A    
C57   C91   A    
C46   C72   A    
C54   O9    A    
C16   C69   A    
C41   C60   A    
C23   C75   A    
Cr3   O18   S    
Cr6   O4    S    
C10   H29   S    
C9    H28   S    
C83   H16   S    
C25   C104  A    
C106  H18   S    
C54   C61   S    
C27   Cl11  S    
C32   C63   S    
C80   H13   S    
C87   O13   A    
C30   Cl3   S    
C26   C79   A    
C49   C59   A    
C63   C84   A    
Cr5   O25   S    
C24   C103  A    
C17   C25   A    
C14   C22   A    
C55   C86   A    
Cr6   O26   S    
C80   C93   A    
C51   C78   A    
C40   H35   S    
C98   O24   A    
C108  H20   S    
C28   Cl10  S    
C48   H1    S    
Cr4   O24   S    
C90   H9    S    
C16   C95   A    
C86   H6    S    
C91   H8    S    
C84   H15   S    
C83   C96   A    
C47   H12   S    
C13   O17   A    
C31   Cl2   S    
C51   H31   S    
C20   C73   A    
C53   C88   A    
C57   C98   S    
C90   C103  A    
C12   C55   S    
C27   C67   A    
C40   C61   A    
C34   C73   A    
C7    H26   S    
C23   C102  A    
C92   C105  A    
Cr4   O19   S    
C33   Cl12  S    
Cr2   O9    S    
C46   H36   S    
C11   C108  A    
C3    C10   A    
C1    O5    A    
C49   H33   S    
Cr6   O19   S    
C2    C56   S    
C61   C80   A    
C88   H5    S    
C4    C9    A    
C56   C92   A    
C59   C76   S    
C52   C56   A    
C43   C62   S    
Cr4   O2    S    
C4    H22   S    
