data_mof_unit_pretest_1691.cif
_audit_creation_date              2012-10-26T18:35:14-0400
_audit_creation_method            fapswitch 2.2
_symmetry_space_group_name_H-M    P1
_symmetry_Int_Tables_number       1
_space_group_crystal_system       triclinic
_cell_length_a                    10.827655
_cell_length_b                    14.427355
_cell_length_c                    13.124713
_cell_angle_alpha                 90.000397
_cell_angle_beta                  90.346282
_cell_angle_gamma                 90.000026
_cell_volume                      2050.23201673

loop_
_atom_site_label
_atom_site_type_symbol
_atom_type_description
_atom_site_fract_x
_atom_site_fract_y
_atom_site_fract_z
_atom_type_partial_charge
C1    C     C_R   0.499999 0.328695 0.500000 0.509329
C2    C     C_R   0.741850 0.489237 0.500457 0.564024
C3    C     C_R   0.499999 0.671316 0.500000 0.553703
C4    C     C_3   0.075015 0.434295 0.605438 0.261569
C5    C     C_3   0.073539 0.423108 0.399025 0.223055
C6    C     C_3   0.926451 0.423341 0.601144 0.223104
C7    C     C_3   0.924976 0.434089 0.394701 0.261557
C8    C     C_3   0.070130 0.580956 0.493686 -0.281323
C9    C     C_3   0.929915 0.580985 0.506077 -0.281397
C10   C     C_3   0.121365 0.479459 0.498810 -0.018540
C11   C     C_3   0.878644 0.479489 0.501213 -0.018554
C12   C     C_1   0.499999 0.957651 0.500000 -0.005385
C13   C     C_1   0.499999 0.227177 0.499999 -0.068820
C14   C     C_1   0.499999 0.142376 0.499999 -0.054619
C15   C     C_1   0.499999 0.042476 0.499999 -0.008257
C16   C     C_3   0.147084 0.342114 0.635544 -0.179854
C17   C     C_3   0.181421 0.333996 0.749194 -0.341935
C18   C     C_3   0.127423 0.321338 0.401116 -0.197484
C19   C     C_3   0.138822 0.271431 0.298008 -0.358399
C20   C     C_3   0.872528 0.321577 0.599316 -0.197476
C21   C     C_3   0.861085 0.271911 0.702560 -0.358359
C22   C     C_3   0.852869 0.341864 0.364836 -0.179845
C23   C     C_1   0.499999 0.857732 0.500000 -0.045602
C24   C     C_3   0.818568 0.333494 0.251201 -0.341970
C25   C     C_1   0.499999 0.772903 0.500001 -0.048881
C26   C     C_1   0.499997 0.499948 0.173585 0.128843
C27   C     C_1   0.500004 0.499949 0.826415 0.128765
C28   C     C_1   0.500003 0.499884 0.050687 -0.043430
C29   C     C_1   0.499999 0.499884 0.949313 -0.043454
C30   C     C_R   0.258162 0.489179 0.499546 0.564085
Cu1   Cu    Cu3+1 0.500000 0.499990 0.592680 0.982063
Cu2   Cu    Cu3+1 0.500000 0.499990 0.407320 0.982117
H1    H     H_    0.113249 0.626101 0.552623 0.144335
H2    H     H_    0.102041 0.351460 0.798677 0.191706
H3    H     H_    0.212140 0.262221 0.766564 0.094231
H4    H     H_    0.099310 0.277673 0.615126 0.087152
H5    H     H_    0.236271 0.337056 0.595610 0.116501
H6    H     H_    0.048491 0.258775 0.261620 0.142807
H7    H     H_    0.198924 0.310502 0.244899 0.201858
H8    H     H_    0.182535 0.202670 0.310546 0.108047
H9    H     H_    0.224031 0.323832 0.429002 0.129978
H10   H     H_    0.078949 0.274830 0.452896 0.065381
H11   H     H_    0.951396 0.259381 0.739030 0.142876
H12   H     H_    0.094162 0.618131 0.422873 0.096942
H13   H     H_    0.800920 0.311093 0.755524 0.201836
H14   H     H_    0.817423 0.203106 0.690201 0.108007
H15   H     H_    0.775930 0.324021 0.571401 0.130088
H16   H     H_    0.920998 0.274941 0.547672 0.065342
H17   H     H_    0.741154 0.381187 0.232361 0.191398
H18   H     H_    0.897972 0.350829 0.201689 0.191691
H19   H     H_    0.787829 0.261686 0.234020 0.094249
H20   H     H_    0.900603 0.277457 0.385450 0.087145
H21   H     H_    0.763663 0.336932 0.404761 0.116490
H22   H     H_    0.905897 0.618315 0.576797 0.096876
H23   H     H_    0.886813 0.626014 0.447026 0.144349
H24   H     H_    0.055044 0.552738 0.685873 0.333952
H25   H     H_    0.143940 0.525380 0.311559 0.330514
H26   H     H_    0.856047 0.525808 0.688334 0.330494
H27   H     H_    0.944988 0.552354 0.313964 0.333935
H28   H     H_    0.258857 0.381715 0.767886 0.191410
N1    N     N_1   0.500000 0.500020 0.268070 -0.160549
N2    N     N_1   0.500000 0.500020 0.731930 -0.160565
O1    O     O_R   0.500000 0.376050 0.578280 -0.488453
O2    O     O_3   0.122306 0.459286 0.306851 -0.674485
O3    O     O_3   0.877710 0.459730 0.693228 -0.674427
O4    O     O_3   0.891535 0.497022 0.315520 -0.660748
O5    O     O_R   0.500000 0.376050 0.421720 -0.488357
O6    O     O_R   0.317680 0.499980 0.578260 -0.450584
O7    O     O_R   0.317680 0.499980 0.421740 -0.483373
O8    O     O_R   0.682320 0.499980 0.578260 -0.483368
O9    O     O_R   0.682320 0.499980 0.421740 -0.450571
O10   O     O_R   0.500000 0.623940 0.578240 -0.470986
O11   O     O_R   0.500000 0.623940 0.421760 -0.471034
O12   O     O_3   0.108477 0.497392 0.684458 -0.660722

loop_
_geom_bond_atom_site_label_1
_geom_bond_atom_site_label_2
_ccdc_geom_bond_type
C4    C16   S    
C8    C10   S    
Cu2   O7    S    
C9    H23   S    
C27   N2    T    
C27   C29   S    
C7    C22   S    
C6    C20   S    
C24   H17   S    
C10   C30   S    
H26   O3    S    
C26   C28   S    
Cu1   Cu2   S    
C12   C23   S    
C12   C15   T    
C16   H5    S    
Cu1   O8    S    
C24   H19   S    
C18   H10   S    
C3    O10   A    
C8    C9    S    
C5    C10   S    
C21   H11   S    
C13   C14   T    
C16   H4    S    
C7    O4    S    
C7    C11   S    
C9    C11   S    
Cu1   N2    S    
C20   H16   S    
C19   H7    S    
Cu2   O5    S    
C22   H21   S    
C1    O1    A    
C22   H20   S    
Cu1   O10   S    
C19   H6    S    
C26   N1    T    
Cu2   N1    S    
C21   H14   S    
Cu2   O9    S    
C21   H13   S    
C8    H1    S    
C23   C25   T    
H27   O4    S    
C24   H18   S    
Cu1   O6    S    
C3    O11   A    
C22   C24   S    
C20   H15   S    
C1    C13   S    
C19   H8    S    
C2    C11   S    
C17   H28   S    
C4    C10   S    
C2    O9    A    
Cu1   O1    S    
C3    C25   S    
C30   O7    A    
H24   O12   S    
C20   C21   S    
H25   O2    S    
C4    C6    S    
C18   C19   S    
C17   H2    S    
C18   H9    S    
C6    C11   S    
C5    C7    S    
C14   C15   S    
C28   C29   T    
C5    C18   S    
C17   H3    S    
C1    O5    A    
C2    O8    A    
C4    O12   S    
C9    H22   S    
Cu2   O11   S    
C6    O3    S    
C30   O6    A    
C8    H12   S    
C5    O2    S    
C16   C17   S    
