data_mof_unit_pretest_1349.cif
_audit_creation_date              2012-12-10T16:37:28-0500
_audit_creation_method            fapswitch 2.2
_symmetry_space_group_name_H-M    P1
_symmetry_Int_Tables_number       1
_space_group_crystal_system       triclinic
_cell_length_a                    16.886359
_cell_length_b                    16.939477
_cell_length_c                    16.637762
_cell_angle_alpha                 65.62267
_cell_angle_beta                  65.524924
_cell_angle_gamma                 65.59031
_cell_volume                      3773.12451591

loop_
_atom_site_label
_atom_site_type_symbol
_atom_type_description
_atom_site_fract_x
_atom_site_fract_y
_atom_site_fract_z
_atom_type_partial_charge
C1    C     C_R   0.397607 0.073258 0.652797 0.709920
C2    C     C_R   0.438671 0.679112 0.970354 0.707722
C3    C     C_R   0.897393 0.604052 0.355793 0.725346
C4    C     C_R   0.037658 0.407050 0.662411 0.714594
C5    C     C_R   0.959665 0.179286 0.438743 0.931147
C6    C     C_R   0.023440 0.822575 0.568219 0.943600
C7    C     C_R   0.178195 0.432607 0.973962 0.935704
C8    C     C_R   0.820793 0.561154 0.039618 0.904098
C9    C     C_R   0.440431 0.957180 0.179572 0.924384
C10   C     C_R   0.559300 0.043376 0.820521 0.889324
C11   C     C_R   0.567467 0.821786 0.025980 0.930460
C12   C     C_R   0.600846 0.929897 0.347264 0.722826
C13   C     C_R   0.438762 0.179180 0.960696 0.909755
C14   C     C_R   0.037769 0.561693 0.820097 0.932623
C15   C     C_R   0.958690 0.438960 0.179717 0.889857
C16   C     C_R   0.821843 0.024963 0.568728 0.915145
C17   C     C_R   0.177868 0.975706 0.431130 0.955237
C18   C     C_R   0.442403 0.085861 0.698748 -0.218216
C19   C     C_R   0.556401 0.916848 0.301393 -0.211256
C20   C     C_R   0.956265 0.737884 0.490829 -0.258636
C21   C     C_R   0.929315 0.289751 0.558309 -0.215249
C22   C     C_R   0.708653 0.443654 0.069265 -0.218972
C23   C     C_R   0.945941 0.695758 0.441892 0.747753
C24   C     C_R   0.273547 0.510501 0.029175 -0.248754
C25   C     C_R   0.266883 0.059642 0.483201 -0.250086
C26   C     C_R   0.730947 0.942883 0.517000 -0.256938
C27   C     C_R   0.556997 0.290660 0.932290 -0.221607
C28   C     C_R   0.488786 0.726161 0.971520 -0.249798
C29   C     C_R   0.900501 0.555876 0.303453 -0.228674
C30   C     C_R   0.059321 0.449856 0.702915 -0.212260
C31   C     C_R   0.542628 0.015041 0.547879 -0.100241
C32   C     C_R   0.455534 0.988416 0.451821 -0.100674
C33   C     C_R   0.982288 0.552097 0.556693 -0.102285
C34   C     C_R   0.945555 0.332761 0.602845 0.717406
C35   C     C_R   0.946058 0.464118 0.469032 -0.102880
C36   C     C_R   0.552652 0.538620 0.012529 -0.117661
C37   C     C_R   0.461674 0.447334 0.987454 -0.117528
C38   C     C_R   0.595210 0.967480 0.480509 -0.040953
C39   C     C_R   0.402793 0.035757 0.519422 -0.040747
C40   C     C_R   0.992416 0.457931 0.593553 -0.051585
C41   C     C_R   0.933482 0.558658 0.432155 -0.061916
C42   C     C_R   0.466929 0.584111 0.997150 -0.032951
C43   C     C_R   0.553956 0.406106 0.986190 -0.049217
C44   C     C_R   0.551909 0.959578 0.427676 -0.063296
C45   C     C_R   0.670131 0.398507 0.048009 0.703734
C46   C     C_R   0.446227 0.043812 0.572186 -0.055420
C47   C     C_R   0.415889 0.533018 0.002542 -0.032999
C48   C     C_R   0.594080 0.446482 0.014070 -0.046864
C49   C     C_R   0.964219 0.416765 0.555134 -0.043294
C50   C     C_R   0.951666 0.603125 0.476662 -0.060156
C51   C     C_R   0.537462 0.064516 0.670642 -0.056888
C52   C     C_R   0.461377 0.938259 0.329202 -0.058561
C53   C     C_R   0.994601 0.688738 0.564856 -0.056223
C54   C     C_R   0.935376 0.326157 0.463497 -0.058947
C55   C     C_R   0.676759 0.538789 0.052433 -0.049489
C56   C     C_R   0.320553 0.560901 0.029799 0.707884
C57   C     C_R   0.319396 0.437796 0.989447 -0.047028
C58   C     C_R   0.315936 0.999302 0.429309 -0.056495
C59   C     C_R   0.682531 0.003513 0.570292 -0.051701
C60   C     C_R   0.461574 0.322677 0.948609 -0.047663
C61   C     C_R   0.561784 0.680642 0.011004 -0.046192
C62   C     C_R   0.925579 0.461038 0.332767 -0.057755
C63   C     C_R   0.039139 0.544572 0.675527 -0.056248
C64   C     C_R   0.586021 0.070972 0.719394 -0.153014
C65   C     C_R   0.413290 0.930842 0.280651 -0.159559
C66   C     C_R   0.027655 0.727874 0.602837 -0.171562
C67   C     C_R   0.309640 0.080026 0.524891 0.714817
C68   C     C_R   0.932667 0.278297 0.411370 -0.164159
C69   C     C_R   0.721726 0.588674 0.061649 -0.156744
C70   C     C_R   0.275241 0.398047 0.964620 -0.171249
C71   C     C_R   0.274042 0.967082 0.394579 -0.184131
C72   C     C_R   0.725176 0.034753 0.605134 -0.171036
C73   C     C_R   0.411425 0.277906 0.939235 -0.156402
C74   C     C_R   0.601771 0.724829 0.035638 -0.170451
C75   C     C_R   0.928925 0.410152 0.281034 -0.167757
C76   C     C_R   0.055408 0.590429 0.720100 -0.161482
C77   C     C_R   0.673157 0.077312 0.674117 0.312988
C78   C     C_R   0.688110 0.922559 0.475479 0.715996
C79   C     C_R   0.326379 0.924219 0.325896 0.310980
C80   C     C_R   0.066974 0.674677 0.673542 0.296733
C81   C     C_R   0.916632 0.324766 0.326085 0.307592
C82   C     C_R   0.675108 0.674286 0.071468 0.299102
C83   C     C_R   0.325838 0.324708 0.928966 0.299429
C84   C     C_R   0.587170 0.029888 0.594610 0.055101
C85   C     C_R   0.411286 0.973373 0.404975 0.061294
C86   C     C_R   0.005970 0.594959 0.598462 0.057244
C87   C     C_R   0.935927 0.416960 0.421716 0.053356
C88   C     C_R   0.596352 0.585762 0.026707 0.058825
C89   C     C_R   0.602169 0.329666 0.953042 0.704253
C90   C     C_R   0.414517 0.403314 0.973721 0.059282
Cl1   Cl    Cl    0.714148 0.136978 0.707241 -0.555329
Cl2   Cl    Cl    0.286244 0.863286 0.293420 -0.503929
Cl3   Cl    Cl    0.135162 0.709280 0.702981 -0.507749
Cl4   Cl    Cl    0.871559 0.280361 0.279972 -0.532260
Cl5   Cl    Cl    0.707784 0.713757 0.133602 -0.549717
Cl6   Cl    Cl    0.286546 0.292248 0.866470 -0.547190
F1    F     F_    0.308147 0.079682 0.695524 -0.560207
F2    F     F_    0.368538 0.727146 0.933064 -0.593506
F3    F     F_    0.846382 0.691987 0.338440 -0.526800
F4    F     F_    0.070890 0.315364 0.684086 -0.548851
F5    F     F_    0.690365 0.923408 0.304807 -0.545645
F6    F     F_    0.940558 0.746801 0.355682 -0.546370
F7    F     F_    0.930998 0.297087 0.695536 -0.566604
F8    F     F_    0.701451 0.306714 0.071179 -0.579582
F9    F     F_    0.272202 0.630810 0.067231 -0.592607
F10   F     F_    0.261256 0.151139 0.560306 -0.574991
F11   F     F_    0.735889 0.850808 0.440979 -0.567871
F12   F     F_    0.694299 0.298274 0.930182 -0.568376
H1    H     H_    0.401354 0.112803 0.756864 0.223198
H2    H     H_    0.469044 0.797931 0.938667 0.210192
H3    H     H_    0.873516 0.593732 0.245120 0.223704
H4    H     H_    0.097183 0.407313 0.752388 0.224527
H5    H     H_    0.597744 0.889331 0.243707 0.226961
H6    H     H_    0.936445 0.809956 0.463369 0.209305
H7    H     H_    0.906838 0.230375 0.601401 0.229857
H8    H     H_    0.761992 0.402349 0.102048 0.224363
H9    H     H_    0.201559 0.529695 0.062718 0.209560
H10   H     H_    0.195952 0.096425 0.489105 0.194171
H11   H     H_    0.801205 0.905637 0.512161 0.166751
H12   H     H_    0.598610 0.237002 0.900094 0.224138
O1    O     O_R   0.982940 0.138950 0.510160 -0.654933
O2    O     O_R   0.982940 0.510160 0.138950 -0.642596
O3    O     O_R   0.861050 0.017060 0.489840 -0.631380
O4    O     O_R   0.138950 0.982940 0.510160 -0.619177
O5    O     O_R   0.867700 0.025880 0.612340 -0.581429
O6    O     O_R   0.132300 0.974120 0.387660 -0.565585
O7    O     O_R   0.025880 0.612340 0.867700 -0.562704
O8    O     O_R   0.974120 0.387660 0.132300 -0.570349
O9    O     O_R   0.612340 0.867700 0.025880 -0.569380
O10   O     O_R   0.387660 0.132300 0.974120 -0.569903
O11   O     O_R   0.387660 0.974120 0.132300 -0.563470
O12   O     O_R   0.017060 0.861050 0.489840 -0.643426
O13   O     O_R   0.612340 0.025880 0.867700 -0.574623
O14   O     O_R   0.132300 0.387660 0.974120 -0.565688
O15   O     O_R   0.867700 0.612340 0.025880 -0.571303
O16   O     O_R   0.974120 0.132300 0.387660 -0.566169
O17   O     O_R   0.025880 0.867700 0.612340 -0.567638
O18   O     O_R   0.138950 0.510160 0.982940 -0.634508
O19   O     O_R   0.861050 0.489840 0.017060 -0.636827
O20   O     O_R   0.510160 0.982940 0.138950 -0.631122
O21   O     O_R   0.489840 0.017060 0.861050 -0.644623
O22   O     O_R   0.489840 0.861050 0.017060 -0.635455
O23   O     O_R   0.510160 0.138950 0.982940 -0.638062
O24   O     O_R   0.017060 0.489840 0.861050 -0.633609
Zn1   Zn    Zn3+2 0.004880 0.004880 0.583590 1.116429
Zn2   Zn    Zn3+2 0.995120 0.995120 0.416410 1.127959
Zn3   Zn    Zn3+2 0.004880 0.583590 0.004880 1.108774
Zn4   Zn    Zn3+2 0.995120 0.416410 0.995120 1.116774
Zn5   Zn    Zn3+2 0.583590 0.004880 0.004880 1.110111
Zn6   Zn    Zn3+2 0.416410 0.995120 0.995120 1.111106

loop_
_geom_bond_atom_site_label_1
_geom_bond_atom_site_label_2
_ccdc_geom_bond_type
C5    O16   A    
C15   C75   S    
C65   C79   A    
C15   O2    A    
C64   C77   A    
C36   C42   A    
C16   C72   S    
C18   H1    S    
C21   H7    S    
C25   H10   S    
C7    C70   S    
C71   C79   A    
O6    Zn2   S    
C27   H12   S    
C36   C88   A    
O9    Zn5   S    
C24   H9    S    
C43   C89   A    
C37   C90   A    
C8    O19   A    
C68   C81   A    
O17   Zn1   S    
C52   C85   A    
C45   F8    S    
C16   O3    A    
C27   C60   A    
C54   C87   A    
C9    O20   A    
C17   O6    A    
C23   F6    S    
C54   C68   A    
C63   C76   A    
C19   H5    S    
C40   C49   A    
C5    O1    A    
C60   C73   A    
C12   C19   A    
C32   C39   A    
C55   C88   A    
C3    C29   A    
C69   C82   A    
C35   C87   A    
C19   C52   A    
C3    C41   A    
O10   Zn6   S    
C4    C40   A    
C24   C57   A    
C31   C46   A    
C25   C67   A    
C35   C49   A    
C13   O10   A    
C10   O13   A    
C36   C48   A    
C53   C86   A    
C57   C70   A    
C37   C47   A    
C43   C48   A    
O24   Zn4   S    
C59   C72   A    
C28   C61   A    
C22   H8    S    
C30   C63   A    
C8    O15   A    
C74   C82   A    
C5    C68   S    
C11   O9    A    
O21   Zn6   S    
C9    O11   A    
C32   C44   A    
C14   O24   A    
O19   Zn4   S    
C33   C40   A    
C57   C90   A    
O13   Zn5   S    
C59   C84   A    
C7    O14   A    
C6    O12   A    
O4    Zn1   S    
C1    F1    S    
C8    C69   S    
C75   C81   A    
C23   C50   A    
C21   C34   A    
C38   C78   A    
C28   H2    S    
C33   C50   A    
C4    C30   A    
C14   O7    A    
C30   H4    S    
C78   F11   S    
C10   O21   A    
C14   C76   S    
C37   C43   A    
C33   C86   A    
C38   C44   A    
C72   C77   A    
C70   C83   A    
C61   C88   A    
C17   O4    A    
C20   C23   A    
O23   Zn5   S    
O18   Zn3   S    
C1    C18   A    
C26   C78   A    
O2    Zn3   S    
C26   H11   S    
C53   C66   A    
C79   Cl2   S    
C55   C69   A    
C39   C46   A    
C16   O5    A    
C13   C73   S    
C17   C71   S    
O3    Zn2   S    
O15   Zn3   S    
C15   O8    A    
C4    F4    S    
C63   C86   A    
C61   C74   A    
O1    Zn1   S    
C62   C75   A    
C25   C58   A    
C58   C85   A    
C41   C50   A    
C66   C80   A    
C26   C59   A    
C45   C48   A    
C29   C62   A    
C77   Cl1   S    
C34   C49   A    
C82   Cl5   S    
C39   C67   A    
C29   H3    S    
O8    Zn4   S    
C51   C64   A    
C76   C80   A    
C20   C53   A    
C11   C74   S    
C7    O18   A    
C67   F10   S    
C22   C55   A    
C60   C90   A    
C18   C51   A    
C24   C56   A    
O14   Zn4   S    
C62   C87   A    
C10   C64   S    
C34   F7    S    
C31   C38   A    
O12   Zn2   S    
O22   Zn6   S    
C6    O17   A    
C12   F5    S    
C12   C44   A    
O5    Zn1   S    
C20   H6    S    
C81   Cl4   S    
C21   C54   A    
C83   Cl6   S    
C2    C42   A    
C32   C85   A    
O20   Zn5   S    
C89   F12   S    
C1    C46   A    
C27   C89   A    
C42   C47   A    
C13   O23   A    
C35   C41   A    
C11   O22   A    
C9    C65   S    
C56   F9    S    
C58   C71   A    
C31   C84   A    
C3    F3    S    
C6    C66   S    
C22   C45   A    
C2    F2    S    
O11   Zn6   S    
C2    C28   A    
C80   Cl3   S    
C51   C84   A    
C73   C83   A    
O16   Zn2   S    
C52   C65   A    
O7    Zn3   S    
C47   C56   A    
