data_mof_unit_pretest_1848.cif
_audit_creation_date              2012-12-10T17:19:39-0500
_audit_creation_method            fapswitch 2.2
_symmetry_space_group_name_H-M    P1
_symmetry_Int_Tables_number       1
_space_group_crystal_system       triclinic
_cell_length_a                    10.159013
_cell_length_b                    10.457019
_cell_length_c                    11.550412
_cell_angle_alpha                 89.995854
_cell_angle_beta                  81.943877
_cell_angle_gamma                 94.203372
_cell_volume                      1211.5911144

loop_
_atom_site_label
_atom_site_type_symbol
_atom_type_description
_atom_site_fract_x
_atom_site_fract_y
_atom_site_fract_z
_atom_type_partial_charge
C1    C     C_R   0.554210 0.734967 0.487419 0.874392
C2    C     C_2   0.419718 0.128180 0.483298 -0.223757
C3    C     C_2   0.500274 0.930241 0.395668 -0.061871
C4    C     C_2   0.496424 0.069503 0.396154 -0.061538
C5    C     C_2   0.927439 0.511412 0.509944 -0.112433
C6    C     C_2   0.072640 0.488849 0.489794 -0.107977
C7    C     C_1   0.582700 0.139856 0.303111 0.209653
C8    C     C_1   0.411388 0.859660 0.326363 0.216124
C9    C     C_1   0.321432 0.056708 0.566329 0.192590
C10   C     C_1   0.679839 0.943391 0.518000 0.185327
C11   C     C_R   0.445619 0.265030 0.502002 0.877146
C12   C     C_R   0.500728 0.499927 0.718028 0.907805
C13   C     C_R   0.499272 0.500076 0.281974 0.895206
C14   C     C_1   0.501846 0.499752 0.838340 -0.176400
C15   C     C_1   0.498150 0.500248 0.161698 -0.159263
C16   C     C_1   0.500954 0.499867 0.940596 0.015314
C17   C     C_1   0.499040 0.500129 0.059455 0.019329
C18   C     C_2   0.579391 0.871765 0.461795 -0.217808
H1    H     H_    0.108254 0.418467 0.426128 0.165815
H2    H     H_    0.891876 0.581959 0.573463 0.167392
H3    H     H_    0.120053 0.617323 0.606089 0.176143
H4    H     H_    0.879881 0.382532 0.394025 0.177290
N1    N     N_2   0.842700 0.448890 0.453570 -0.183771
N2    N     N_2   0.157300 0.551110 0.546430 -0.183978
N3    N     N_1   0.651585 0.195654 0.228759 -0.194570
N4    N     N_1   0.340413 0.803660 0.270985 -0.186958
N5    N     N_1   0.242935 0.999482 0.632625 -0.184537
N6    N     N_1   0.760066 0.000719 0.562881 -0.182620
O1    O     O_R   0.431060 0.692470 0.509350 -0.591617
O2    O     O_R   0.568940 0.307530 0.490650 -0.589979
O3    O     O_R   0.651120 0.659650 0.479540 -0.601271
O4    O     O_R   0.348880 0.340350 0.520460 -0.601302
O5    O     O_R   0.389960 0.516400 0.680450 -0.597305
O6    O     O_R   0.610040 0.483600 0.319550 -0.596710
O7    O     O_R   0.610030 0.483580 0.650650 -0.603094
O8    O     O_R   0.389970 0.516420 0.349350 -0.604162
Zn1   Zn    Zn3+2 0.353060 0.521910 0.519900 0.971153
Zn2   Zn    Zn3+2 0.646940 0.478090 0.480100 0.972238

loop_
_geom_bond_atom_site_label_1
_geom_bond_atom_site_label_2
_ccdc_geom_bond_type
C13   O8    A    
C2    C4    D    
N1    Zn2   S    
C8    N4    T    
C5    N1    D    
O3    Zn2   S    
C6    N2    D    
C1    O1    A    
N2    Zn1   S    
C13   O6    A    
C5    H2    S    
O4    Zn1   S    
C12   O7    A    
C6    H1    S    
O2    Zn2   S    
C1    C18   S    
C10   C18   S    
C4    C7    S    
C2    C11   S    
O8    Zn1   S    
C12   C14   S    
C11   O4    A    
C13   C15   S    
C5    C6    S    
C14   C16   T    
O1    Zn1   S    
C3    C4    S    
C1    O3    A    
O7    Zn2   S    
C9    N5    T    
C3    C18   D    
C3    C8    S    
H3    N2    S    
C10   N6    T    
C15   C17   T    
H4    N1    S    
C12   O5    A    
O6    Zn2   S    
C2    C9    S    
O5    Zn1   S    
C11   O2    A    
C16   C17   S    
C7    N3    T    
