data_mof_unit_pretest_1709.cif
_audit_creation_date              2012-12-10T19:01:16-0500
_audit_creation_method            fapswitch 2.2
_symmetry_space_group_name_H-M    P1
_symmetry_Int_Tables_number       1
_space_group_crystal_system       triclinic
_cell_length_a                    15.893039
_cell_length_b                    14.258884
_cell_length_c                    13.381649
_cell_angle_alpha                 89.998564
_cell_angle_beta                  89.97545
_cell_angle_gamma                 90.004995
_cell_volume                      3032.508854

loop_
_atom_site_label
_atom_site_type_symbol
_atom_type_description
_atom_site_fract_x
_atom_site_fract_y
_atom_site_fract_z
_atom_type_partial_charge
C1    C     C_R   0.499996 0.326569 0.500001 0.909144
C2    C     C_1   0.499997 0.499981 0.950478 -0.038055
C3    C     C_R   0.336138 0.498435 0.500012 0.937467
C4    C     C_R   0.663871 0.498475 0.499959 0.939324
C5    C     C_R   0.499983 0.673447 0.499999 0.954971
C6    C     C_3   0.049258 0.462320 0.599886 0.146145
C7    C     C_3   0.050538 0.455102 0.401910 0.170471
C8    C     C_3   0.949021 0.472583 0.603709 0.185304
C9    C     C_3   0.950155 0.448318 0.406465 0.154396
C10   C     C_1   0.751580 0.504123 0.499681 -0.138021
C11   C     C_1   0.248430 0.503719 0.499928 -0.140455
C12   C     C_1   0.499976 0.141346 0.500000 0.000551
C13   C     C_3   0.082717 0.513196 0.498497 0.024648
C14   C     C_3   0.917235 0.514127 0.497473 0.027239
C15   C     C_3   0.948944 0.622330 0.478618 -0.313104
C16   C     C_3   0.051727 0.623091 0.496323 -0.301812
C17   C     C_1   0.825977 0.509464 0.498753 0.064698
C18   C     C_1   0.173988 0.508803 0.499405 0.048381
C19   C     C_1   0.499985 0.225915 0.500002 -0.217463
C20   C     C_2   0.084940 0.672807 0.592654 0.951730
C21   C     C_2   0.097793 0.686587 0.420524 1.005887
C22   C     C_2   0.903753 0.698196 0.541164 0.985663
C23   C     C_1   0.499965 0.042285 0.499998 0.021936
C24   C     C_2   0.916091 0.655415 0.374149 0.960852
C25   C     C_1   0.499961 0.957722 0.499996 0.026814
C26   C     C_1   0.499962 0.858662 0.499995 0.016187
C27   C     C_1   0.499970 0.774095 0.499996 -0.193902
C28   C     C_1   0.499998 0.499980 0.169449 0.086670
C29   C     C_1   0.499998 0.499980 0.830551 0.085069
C30   C     C_1   0.499997 0.499981 0.049522 -0.037906
H1    H     H_    0.920858 0.323890 0.588345 0.208365
H2    H     H_    0.053016 0.563771 0.294676 0.259832
H3    H     H_    0.151328 0.497822 0.690458 0.207700
H4    H     H_    0.064074 0.472532 0.753370 0.215356
H5    H     H_    0.936492 0.435462 0.252143 0.198318
H6    H     H_    0.848357 0.467808 0.310117 0.203428
H7    H     H_    0.858690 0.540200 0.692688 0.245486
H8    H     H_    0.952065 0.599511 0.687315 0.251452
H9    H     H_    0.187238 0.707611 0.675158 0.352562
H10   H     H_    0.193642 0.707116 0.323644 0.352499
H11   H     H_    0.891694 0.836822 0.570139 0.356389
H12   H     H_    0.921377 0.364996 0.703443 0.211116
H13   H     H_    0.934863 0.711317 0.236944 0.358730
H14   H     H_    0.858078 0.346293 0.428913 0.178672
H15   H     H_    0.936287 0.309707 0.357989 0.189939
H16   H     H_    0.046922 0.317279 0.556834 0.231094
H17   H     H_    0.140775 0.356019 0.598346 0.187137
H18   H     H_    0.072323 0.327234 0.331937 0.202636
H19   H     H_    0.152918 0.362174 0.399960 0.176229
H20   H     H_    0.143666 0.500354 0.301930 0.233530
N1    N     N_1   0.500000 0.499980 0.261870 -0.061553
N2    N     N_3   0.924099 0.534422 0.687044 -0.448246
N3    N     N_1   0.500000 0.499980 0.738130 -0.061983
N4    N     N_3   0.906511 0.382935 0.629647 -0.451213
N5    N     N_3   0.923468 0.349987 0.421453 -0.471286
N6    N     N_3   0.075662 0.362747 0.606616 -0.472984
N7    N     N_3   0.087239 0.359707 0.399785 -0.464358
N8    N     N_3   0.078091 0.498181 0.307161 -0.465446
N9    N     N_3   0.086065 0.507027 0.689408 -0.436645
N10   N     N_3   0.913522 0.477943 0.309800 -0.447058
O1    O     O_R   0.500000 0.373720 0.576470 -0.600762
O2    O     O_R   0.171587 0.671709 0.612448 -0.800102
O3    O     O_2   0.077519 0.769333 0.414118 -0.527882
O4    O     O_R   0.168605 0.656333 0.367567 -0.829198
O5    O     O_2   0.842154 0.680394 0.592449 -0.648215
O6    O     O_R   0.927312 0.792257 0.528935 -0.711951
O7    O     O_2   0.840153 0.653300 0.357952 -0.618082
O8    O     O_R   0.967285 0.692527 0.299055 -0.789841
O9    O     O_R   0.500000 0.373720 0.423530 -0.602763
O10   O     O_R   0.377150 0.500010 0.576490 -0.608950
O11   O     O_R   0.377150 0.500010 0.423510 -0.605885
O12   O     O_R   0.622850 0.500010 0.576490 -0.603720
O13   O     O_R   0.622850 0.500010 0.423510 -0.604690
O14   O     O_R   0.500000 0.626290 0.576440 -0.591960
O15   O     O_R   0.500000 0.626290 0.423560 -0.590715
O16   O     O_2   0.040382 0.719270 0.647984 -0.610962
Zn1   Zn    Zn3+2 0.500000 0.500010 0.602090 0.991143
Zn2   Zn    Zn3+2 0.500000 0.500010 0.397910 0.992010

loop_
_geom_bond_atom_site_label_1
_geom_bond_atom_site_label_2
_ccdc_geom_bond_type
C5    O15   A    
C7    C13   S    
N3    Zn1   S    
O13   Zn2   S    
C22   O5    D    
C16   C21   S    
C9    N5    S    
O11   Zn2   S    
C8    N2    S    
C7    N8    S    
C3    O11   A    
H10   O4    S    
C3    C11   S    
H2    N8    S    
C16   C20   S    
C9    N10   S    
O14   Zn1   S    
C28   C30   S    
C26   C27   T    
N1    Zn2   S    
H18   N7    S    
C11   C18   T    
C5    C27   S    
H12   N4    S    
O10   Zn1   S    
C14   C17   S    
H15   N5    S    
O9    Zn2   S    
O12   Zn1   S    
C29   N3    T    
C13   C18   S    
C2    C29   S    
H14   N5    S    
C6    C8    S    
C12   C19   T    
H16   N6    S    
C15   C24   S    
O15   Zn2   S    
C4    O13   A    
C9    C14   S    
O1    Zn1   S    
C23   C25   T    
H1    N4    S    
C20   O2    S    
H4    N9    S    
H9    O2    S    
C28   N1    T    
C1    O9    A    
C21   O3    D    
H8    N2    S    
C2    C30   T    
C24   O8    S    
C10   C17   T    
C4    C10   S    
C15   C16   S    
H20   N8    S    
C4    O12   A    
C3    O10   A    
H19   N7    S    
C20   O16   D    
H3    N9    S    
C13   C16   S    
C8    N4    S    
C12   C23   S    
C7    C9    S    
H7    N2    S    
C5    O14   A    
H5    N10   S    
C21   O4    S    
C8    C14   S    
H11   O6    S    
C24   O7    D    
H6    N10   S    
C25   C26   S    
C14   C15   S    
C1    C19   S    
C6    N9    S    
C7    N7    S    
C15   C22   S    
C22   O6    S    
C6    N6    S    
H17   N6    S    
C6    C13   S    
H13   O8    S    
C1    O1    A    
