data_mof_unit_pretest_939.cif
_audit_creation_date              2013-03-05T15:41:55-0500
_audit_creation_method            fapswitch 2.2
_symmetry_space_group_name_H-M    P1
_symmetry_Int_Tables_number       1
_space_group_crystal_system       triclinic
_cell_length_a                    19.404956
_cell_length_b                    7.240828
_cell_length_c                    17.762078
_cell_angle_alpha                 90.0
_cell_angle_beta                  107.658514
_cell_angle_gamma                 90.000017
_cell_volume                      2378.11856568

loop_
_atom_site_label
_atom_site_type_symbol
_atom_site_description
_atom_site_fract_x
_atom_site_fract_y
_atom_site_fract_z
_atom_type_partial_charge
O1    O     O_R   0.414820 0.494320 0.416790 -0.508541
O2    O     O_R   0.585180 0.994320 0.583210 -0.508538
O3    O     O_R   0.560270 0.819500 0.430140 -0.512061
O4    O     O_R   0.439730 0.319500 0.569860 -0.512061
C1    C     C_R   0.583444 0.655900 0.417351 0.878901
C2    C     C_R   0.416556 0.155900 0.582649 0.878869
O5    O     O_R   0.413840 0.823740 0.407440 -0.575781
O6    O     O_R   0.586160 0.323740 0.592560 -0.575777
O7    O     O_R   0.437710 0.998590 0.560350 -0.556120
O8    O     O_R   0.562290 0.498590 0.439650 -0.556118
C3    C     C_R   0.386928 0.655320 0.386448 0.870858
C4    C     C_R   0.613072 0.155320 0.613552 0.870865
O9    O     O_3   0.508000 0.662290 0.550200 -0.277404
O10   O     O_3   0.492000 0.162290 0.449800 -0.277406
V1    V     V_3+5 0.498520 0.935380 0.490690 1.255602
V2    V     V_3+5 0.501480 0.435380 0.509310 1.255606
C5    C     C_2   0.787388 0.264827 0.784845 -0.126560
C6    C     C_2   0.212612 0.764827 0.215155 -0.126556
C7    C     C_2   0.813145 0.110302 0.827460 0.197840
C8    C     C_2   0.186855 0.610302 0.172539 0.197842
H1    H     H_    0.820454 0.388763 0.795645 0.126490
H2    H     H_    0.179546 0.888763 0.204355 0.126491
C9    C     C_2   0.715580 0.281616 0.723079 -0.059108
C10   C     C_2   0.284420 0.781616 0.276921 -0.059109
C11   C     C_2   0.683132 0.140472 0.676337 -0.098819
C12   C     C_2   0.316868 0.640472 0.323663 -0.098815
H3    H     H_    0.691236 0.418017 0.713173 0.130797
H4    H     H_    0.308763 0.918017 0.286827 0.130797
H5    H     H_    0.709662 0.007212 0.682376 0.162516
H6    H     H_    0.290338 0.507212 0.317624 0.162525
C13   C     C_R   0.309106 0.288276 0.618889 0.339288
C14   C     C_R   0.690894 0.788277 0.381110 0.339311
C15   C     C_R   0.362970 0.149382 0.627478 -0.186961
C16   C     C_R   0.637030 0.649382 0.372523 -0.186946
C17   C     C_R   0.365613 0.001094 0.679363 -0.128765
C18   C     C_R   0.634387 0.501094 0.320638 -0.128774
C19   C     C_R   0.318229 0.992329 0.725092 0.051646
C20   C     C_R   0.681772 0.492329 0.274909 0.051647
C21   C     C_R   0.270519 0.140281 0.723430 -0.008846
C22   C     C_R   0.729481 0.640281 0.276570 -0.008847
C23   C     C_R   0.267794 0.292587 0.672648 -0.023317
C24   C     C_R   0.732206 0.792588 0.327352 -0.023327
C25   C     C_R   0.318680 0.839014 0.773644 -0.073638
C26   C     C_R   0.681320 0.339013 0.226356 -0.073637
C27   C     C_R   0.271654 0.830957 0.819652 -0.102430
C28   C     C_R   0.728347 0.330957 0.180349 -0.102431
C29   C     C_R   0.224349 0.977742 0.819203 0.046713
C30   C     C_R   0.775651 0.477741 0.180797 0.046713
C31   C     C_R   0.224606 0.134432 0.772003 0.061466
C32   C     C_R   0.775394 0.634432 0.227997 0.061467
C33   C     C_R   0.178750 0.284860 0.773092 0.048651
C34   C     C_R   0.821250 0.784860 0.226907 0.048651
C35   C     C_R   0.179735 0.440288 0.726678 -0.112772
C36   C     C_R   0.820265 0.940289 0.273322 -0.112770
C37   C     C_R   0.223754 0.444567 0.677419 -0.027739
C38   C     C_R   0.776246 0.944568 0.322581 -0.027739
C39   C     C_R   0.176845 0.970616 0.865133 -0.103461
C40   C     C_R   0.823155 0.470616 0.134867 -0.103460
C41   C     C_R   0.130813 0.120329 0.866316 -0.101771
C42   C     C_R   0.869187 0.620329 0.133684 -0.101770
C43   C     C_R   0.132914 0.277984 0.820830 -0.107970
C44   C     C_R   0.867086 0.777984 0.179170 -0.107969
H7    H     H_    0.404736 0.891384 0.684011 0.121945
H8    H     H_    0.595265 0.391384 0.315989 0.121946
H9    H     H_    0.354920 0.724112 0.775384 0.082522
H10   H     H_    0.645081 0.224112 0.224616 0.082522
H11   H     H_    0.272457 0.709954 0.855810 0.085693
H12   H     H_    0.727543 0.209953 0.144191 0.085693
H13   H     H_    0.176493 0.849445 0.900881 0.092897
H14   H     H_    0.823507 0.349444 0.099119 0.092897
H15   H     H_    0.097794 0.394158 0.821325 0.094463
H16   H     H_    0.902205 0.894158 0.178674 0.094464
H17   H     H_    0.146320 0.559215 0.728386 0.087736
H18   H     H_    0.853680 0.059216 0.271613 0.087736
H19   H     H_    0.224353 0.570627 0.645093 0.156173
H20   H     H_    0.775647 0.070629 0.354906 0.156176
O11   O     O_R   0.937810 0.773680 0.060480 -0.553492
O12   O     O_R   0.062190 0.273680 0.939520 -0.553492
O13   O     O_R   0.086190 0.439740 0.092580 -0.509238
O14   O     O_R   0.913810 0.939740 0.907420 -0.509239
C45   C     C_R   0.113733 0.607649 0.113110 0.760489
C46   C     C_R   0.886267 0.107649 0.886890 0.760489
O15   O     O_R   0.939760 0.444210 0.069890 -0.565191
O16   O     O_R   0.060240 0.944210 0.930110 -0.565191
O17   O     O_R   0.914790 0.269640 0.916760 -0.574059
O18   O     O_R   0.085210 0.769640 0.083240 -0.574059
C47   C     C_R   0.918870 0.612413 0.084599 0.827501
C48   C     C_R   0.081130 0.112413 0.915400 0.827500
O19   O     O_3   0.992050 0.601530 0.949880 -0.280228
O20   O     O_3   0.007950 0.101530 0.050120 -0.280227
V3    V     V_3+5 0.001480 0.328340 0.009300 1.187298
V4    V     V_3+5 0.998520 0.828340 0.990700 1.187297
N1    N     N_R   0.767435 0.951543 0.823325 0.073775
O21   O     O_R   0.790815 0.786775 0.814888 -0.360888
O22   O     O_R   0.705037 0.969867 0.835721 -0.370833
N2    N     N_R   0.232565 0.451543 0.176674 0.073775
O23   O     O_R   0.209185 0.286775 0.185111 -0.360881
O24   O     O_R   0.294963 0.469869 0.164279 -0.370834
S1    S     S_3+6 0.284786 0.432304 0.533146 -0.079775
O25   O     O_2   0.205852 0.481947 0.508984 -0.293570
O26   O     O_2   0.328882 0.606505 0.550329 -0.283979
O27   O     O_3   0.300594 0.321791 0.456771 -0.509142
H21   H     H_    0.269163 0.211070 0.447906 0.331194
S2    S     S_3+6 0.715213 0.932308 0.466852 -0.079786
O28   O     O_2   0.794147 0.981956 0.491015 -0.293593
O29   O     O_2   0.671116 0.106507 0.449669 -0.283974
O30   O     O_3   0.699405 0.821794 0.543227 -0.509162
H22   H     H_    0.730865 0.711123 0.552119 0.331217

loop_
_geom_bond_atom_site_label_1
_geom_bond_atom_site_label_2
_geom_bond_distance
_ccdc_geom_bond_type
O15   C47   1.334241 A    
O11   V4    1.991622 S    
O4    V2    2.019499 S    
N1    O21   1.301125 A    
C38   H20   1.080288 S    
C26   H10   1.083733 S    
O1    C3    1.328700 A    
O2    C4    1.328700 A    
C2    O7    1.312053 A    
S2    O29   1.502639 D    
O17   V3    2.008666 S    
O8    V2    2.004654 S    
C29   C31   1.411630 A    
O5    C3    1.334466 A    
C5    C9    1.494186 S    
C6    C10   1.494186 S    
C17   C19   1.400840 A    
C10   C12   1.346506 D    
C39   C41   1.408853 A    
C40   C42   1.408853 A    
C42   C44   1.406241 A    
C27   C29   1.402811 A    
C41   C48   1.484198 S    
C23   C37   1.411542 A    
C24   C38   1.411542 A    
C28   H12   1.083656 S    
C36   H18   1.083904 S    
C26   C28   1.398704 A    
C31   C33   1.410327 A    
N2    O24   1.301523 A    
C27   H11   1.083654 S    
C32   C34   1.410326 A    
O30   H22   0.990604 S    
C14   S2    1.787098 S    
C9    H3    1.085886 S    
C7    C46   1.489727 S    
O13   V3    2.016341 S    
C45   O18   1.336225 A    
C7    N1    1.440168 S    
C25   H9    1.083733 S    
C37   H19   1.080288 S    
C43   H15   1.084320 S    
C30   C32   1.411629 A    
C8    N2    1.440167 S    
O6    V2    2.016433 S    
C8    C45   1.489728 S    
C1    C16   1.489898 S    
S2    O28   1.503574 D    
C42   C47   1.484198 S    
C34   C36   1.398642 A    
C28   C30   1.402811 A    
C35   C37   1.396254 A    
C11   H5    1.083558 S    
C19   C21   1.410346 A    
C36   C38   1.396253 A    
C41   C43   1.406241 A    
C10   H4    1.085886 S    
O4    C2    1.311137 A    
O13   C45   1.333629 A    
C40   H14   1.084272 S    
O5    V1    2.016433 S    
C3    C12   1.477736 S    
C5    H1    1.085886 S    
C33   C35   1.398642 A    
C14   C16   1.424949 A    
C19   C25   1.404136 A    
C20   C26   1.404135 A    
C29   C39   1.405062 A    
S1    O25   1.503574 D    
O6    C4    1.334465 A    
N2    O23   1.301124 A    
C13   C15   1.424949 A    
C44   H16   1.084320 S    
O1    V2    2.008491 S    
O19   V4    1.784196 S    
O2    V1    2.008491 S    
C25   C27   1.398702 A    
O11   C47   1.333295 A    
O14   C46   1.333628 A    
C21   C31   1.416418 A    
C12   H6    1.083558 S    
C13   S1    1.787099 S    
C5    C7    1.358359 D    
O18   V4    2.008666 S    
O3    V1    2.019501 S    
O12   C48   1.333294 A    
C13   C23   1.421202 A    
S1    O26   1.502638 D    
C6    H2    1.085887 S    
C35   H17   1.083903 S    
O16   C48   1.334240 A    
O3    C1    1.311136 A    
C30   C40   1.405062 A    
O12   V3    1.991622 S    
C46   O17   1.336225 A    
O15   V3    2.019540 S    
C2    C15   1.489894 S    
C4    C11   1.477736 S    
C18   C20   1.400840 A    
O7    V1    2.004654 S    
C1    O8    1.312054 A    
O14   V4    2.016342 S    
C34   C44   1.403607 A    
C20   C22   1.410347 A    
C33   C43   1.403607 A    
O20   V3    1.784196 S    
C22   C32   1.416417 A    
C22   C24   1.415512 A    
C15   C17   1.405760 A    
C16   C18   1.405759 A    
C6    C8    1.358359 D    
C9    C11   1.346506 D    
O27   H21   0.990592 S    
S1    O27   1.681433 S    
C21   C23   1.415511 A    
N1    O22   1.301522 A    
O9    V2    1.785290 S    
C14   C24   1.421202 A    
O10   V1    1.785290 S    
C17   H7    1.084522 S    
O16   V4    2.019538 S    
C39   H13   1.084272 S    
C18   H8    1.084522 S    
S2    O30   1.681433 S    
