data_mof_unit_pretest_632.cif
_audit_creation_date              2012-12-10T20:02:20-0500
_audit_creation_method            fapswitch 2.2
_symmetry_space_group_name_H-M    P1
_symmetry_Int_Tables_number       1
_space_group_crystal_system       triclinic
_cell_length_a                    10.69964
_cell_length_b                    14.985993
_cell_length_c                    14.153746
_cell_angle_alpha                 90.202822
_cell_angle_beta                  90.015309
_cell_angle_gamma                 89.980888
_cell_volume                      2269.46415695

loop_
_atom_site_label
_atom_site_type_symbol
_atom_type_description
_atom_site_fract_x
_atom_site_fract_y
_atom_site_fract_z
_atom_type_partial_charge
C1    C     C_R   0.497432 0.327576 0.499860 0.901045
C2    C     C_R   0.499660 0.672153 0.500135 0.899866
C3    C     C_R   0.872402 0.497172 0.500532 -0.051215
C4    C     C_R   0.127546 0.504986 0.499893 -0.052087
C5    C     C_R   0.938810 0.455397 0.573941 0.081755
C6    C     C_R   0.061196 0.547717 0.426922 0.080605
C7    C     C_R   0.487432 0.092980 0.584063 -0.187453
C8    C     C_R   0.536223 0.907152 0.424989 -0.168117
C9    C     C_R   0.494939 0.184888 0.584635 -0.206186
C10   C     C_R   0.545898 0.815342 0.426041 -0.220677
C11   C     C_R   0.486136 0.231712 0.499557 -0.018168
C12   C     C_R   0.492203 0.767603 0.500179 -0.006517
C13   C     C_R   0.462864 0.186619 0.414548 -0.179748
C14   C     C_R   0.426897 0.811049 0.572419 -0.130873
C15   C     C_R   0.452145 0.094815 0.414333 -0.179445
C16   C     C_R   0.414529 0.902725 0.570183 -0.204329
C17   C     C_R   0.467281 0.047664 0.498738 0.109127
C18   C     C_R   0.470489 0.951087 0.497070 0.105094
C19   C     C_R   0.406531 0.455438 0.105049 -0.259489
C20   C     C_R   0.549243 0.572278 0.895057 -0.256110
C21   C     C_R   0.408570 0.455888 0.204338 0.033135
C22   C     C_R   0.548658 0.570765 0.795761 0.020491
C23   C     C_R   0.260026 0.502455 0.499893 0.923106
C24   C     C_R   0.739976 0.498002 0.500145 0.914420
C25   C     C_R   0.591557 0.544076 0.204815 0.052480
C26   C     C_R   0.451992 0.429069 0.795250 0.037446
C27   C     C_R   0.593764 0.544590 0.105532 -0.219164
C28   C     C_R   0.451592 0.427560 0.894527 -0.216202
C29   C     C_R   0.500215 0.500001 0.053417 0.164598
C30   C     C_R   0.500364 0.499947 0.946667 0.123097
C31   C     C_R   0.257042 0.720614 0.299011 -0.271409
C32   C     C_R   0.768014 0.273263 0.707920 -0.321662
C33   C     C_R   0.190063 0.677847 0.371391 0.508692
C34   C     C_R   0.827754 0.318764 0.633014 0.516200
C35   C     C_R   0.122582 0.599385 0.350678 0.033669
C36   C     C_R   0.878091 0.404168 0.650656 0.040119
C37   C     C_R   0.115702 0.568582 0.257032 -0.322016
C38   C     C_R   0.871630 0.441573 0.741578 -0.294731
C39   C     C_R   0.180010 0.612877 0.185284 -0.195263
C40   C     C_R   0.812597 0.395743 0.814647 -0.182030
C41   C     C_R   0.252205 0.688003 0.206412 0.420659
C42   C     C_R   0.760724 0.311742 0.797885 0.422041
C43   C     C_R   0.932919 0.542440 0.427690 -0.280555
C44   C     C_R   0.066921 0.460189 0.572924 -0.265694
H1    H     H_    0.433878 0.060586 0.348220 0.144634
H2    H     H_    0.361772 0.935788 0.625442 0.139454
H3    H     H_    0.330684 0.421510 0.069390 0.132699
H4    H     H_    0.586144 0.630524 0.930757 0.159349
H5    H     H_    0.336121 0.421432 0.243038 0.129734
H6    H     H_    0.586882 0.626630 0.757218 0.132821
H7    H     H_    0.663755 0.578719 0.243894 0.115817
H8    H     H_    0.414176 0.373021 0.756338 0.130102
H9    H     H_    0.669529 0.578691 0.070242 0.129313
H10   H     H_    0.415004 0.369227 0.929801 0.161207
H11   H     H_    0.313737 0.778529 0.315006 0.181316
H12   H     H_    0.726022 0.208510 0.696949 0.166811
H13   H     H_    0.063120 0.508882 0.240076 0.178427
H14   H     H_    0.910736 0.507005 0.755346 0.174658
H15   H     H_    0.175852 0.587573 0.113615 0.178903
H16   H     H_    0.806634 0.425809 0.884173 0.175922
H17   H     H_    0.880072 0.576001 0.372809 0.154066
H18   H     H_    0.119551 0.426497 0.627846 0.160224
H19   H     H_    0.500867 0.057401 0.649762 0.150282
H20   H     H_    0.582299 0.943791 0.369131 0.145125
H21   H     H_    0.509826 0.218978 0.651253 0.170645
H22   H     H_    0.596737 0.781764 0.370039 0.158370
H23   H     H_    0.452782 0.222063 0.348407 0.162656
H24   H     H_    0.383086 0.773978 0.629049 0.163626
N1    N     N_R   0.500000 0.499980 0.252470 -0.098733
N2    N     N_R   0.500000 0.500020 0.747530 -0.098821
O1    O     O_R   0.500010 0.369070 0.579480 -0.637598
O2    O     O_R   0.499990 0.630930 0.420520 -0.621272
O3    O     O_R   0.500010 0.369060 0.420520 -0.622538
O4    O     O_R   0.499990 0.630940 0.579480 -0.635301
O5    O     O_R   0.316760 0.500010 0.579480 -0.622045
O6    O     O_R   0.683240 0.499990 0.420520 -0.629187
O7    O     O_R   0.316760 0.500000 0.420520 -0.633181
O8    O     O_R   0.683240 0.500000 0.579480 -0.622598
Zn1   Zn    Zn3+2 0.500000 0.500010 0.606140 0.959333
Zn2   Zn    Zn3+2 0.500000 0.499990 0.393860 0.964870
Cl1   Cl    Cl    0.338334 0.740438 0.117010 -0.634468
Cl2   Cl    Cl    0.685456 0.254679 0.889690 -0.644944
O9    O     O_3   0.197608 0.708054 0.463655 -0.628043
C45   C     C_3   0.130155 0.788527 0.471812 -0.334892
H25   H     H_    0.031890 0.780618 0.447096 0.161464
H26   H     H_    0.177253 0.843513 0.433112 0.175793
H27   H     H_    0.126845 0.807904 0.547478 0.199528
O10   O     O_3   0.831156 0.285930 0.540883 -0.617452
C46   C     C_3   0.855872 0.193443 0.538086 -0.316419
H28   H     H_    0.768612 0.154803 0.549146 0.181610
H29   H     H_    0.929306 0.173402 0.589671 0.158583
H30   H     H_    0.891038 0.176180 0.466611 0.201645

loop_
_geom_bond_atom_site_label_1
_geom_bond_atom_site_label_2
_ccdc_geom_bond_type
C40   H16   S    
C27   C29   A    
C1    C11   S    
C45   H27   S    
C2    C12   S    
C21   H5    S    
C39   C41   A    
C20   C30   A    
C3    C43   A    
C1    O1    A    
C19   C21   A    
C45   H26   S    
C19   H3    S    
C5    C36   S    
C6    C35   S    
C7    C9    A    
C38   H14   S    
C7    C17   A    
C42   Cl2   S    
C31   C33   A    
C46   H29   S    
C2    O4    A    
C22   H6    S    
C40   C42   A    
C39   H15   S    
C3    C24   S    
C2    O2    A    
O1    Zn1   S    
C10   H22   S    
C37   C39   A    
C45   H25   S    
C4    C6    A    
C16   H2    S    
C4    C23   S    
C28   H10   S    
O8    Zn1   S    
C24   O6    A    
C4    C44   A    
C44   H18   S    
C8    C18   A    
C21   N1    A    
C32   C34   A    
C25   H7    S    
C29   C30   S    
C26   H8    S    
C33   O9    S    
O9    C45   S    
C41   Cl1   S    
C17   C18   S    
C16   C18   A    
C34   O10   S    
C23   O7    A    
C46   H30   S    
C9    C11   A    
C7    H19   S    
C20   H4    S    
C10   C12   A    
C8    H20   S    
C24   O8    A    
C5    C44   A    
C12   C14   A    
C6    C43   A    
C13   C15   A    
C26   N2    A    
C14   C16   A    
C25   N1    A    
C20   C22   A    
C19   C29   A    
C43   H17   S    
C13   H23   S    
O7    Zn2   S    
C15   C17   A    
C14   H24   S    
C31   C41   A    
C35   C37   A    
N2    Zn1   S    
O6    Zn2   S    
C23   O5    A    
C3    C5    A    
C27   H9    S    
C25   C27   A    
C26   C28   A    
O4    Zn1   S    
C1    O3    A    
C28   C30   A    
O2    Zn2   S    
C38   C40   A    
C11   C13   A    
C36   C38   A    
C33   C35   A    
O3    Zn2   S    
C22   N2    A    
C34   C36   A    
C9    H21   S    
O10   C46   S    
C8    C10   A    
C32   C42   A    
N1    Zn2   S    
C31   H11   S    
C46   H28   S    
O5    Zn1   S    
C32   H12   S    
C37   H13   S    
C15   H1    S    
