data_mof_unit_pretest_311.cif
_audit_creation_date              2012-12-11T14:47:32-0500
_audit_creation_method            fapswitch 2.2
_symmetry_space_group_name_H-M    P1
_symmetry_Int_Tables_number       1
_space_group_crystal_system       triclinic
_cell_length_a                    19.346207
_cell_length_b                    6.969252
_cell_length_c                    19.494593
_cell_angle_alpha                 89.999967
_cell_angle_beta                  96.085289
_cell_angle_gamma                 89.999927
_cell_volume                      2613.61784086

loop_
_atom_site_label
_atom_site_type_symbol
_atom_type_description
_atom_site_fract_x
_atom_site_fract_y
_atom_site_fract_z
_atom_type_partial_charge
O1    O     O_R   0.673510 0.377480 0.186100 -0.548346
O2    O     O_R   0.326490 0.622520 0.813900 -0.541618
O3    O     O_R   0.826490 0.877480 0.313900 -0.548345
O4    O     O_R   0.173510 0.122520 0.686100 -0.541617
O5    O     O_R   0.807790 0.705750 0.184090 -0.529672
O6    O     O_R   0.192210 0.294250 0.815910 -0.530219
O7    O     O_R   0.692210 0.205750 0.315910 -0.529672
O8    O     O_R   0.307790 0.794250 0.684090 -0.530219
C1    C     C_1   0.478578 0.993777 0.521648 0.000216
C2    C     C_1   0.522611 0.004758 0.479543 -0.000035
C3    C     C_1   0.021421 0.493777 0.978352 0.000216
C4    C     C_1   0.977389 0.504758 0.020457 -0.000035
C5    C     C_R   0.829762 0.537935 0.165168 0.714840
C6    C     C_R   0.169163 0.461700 0.833770 0.730492
C7    C     C_R   0.670238 0.037935 0.334832 0.714837
C8    C     C_R   0.330837 0.961700 0.666230 0.730494
O9    O     O_R   0.672870 0.707110 0.178120 -0.517199
O10   O     O_R   0.327130 0.292890 0.821880 -0.517256
O11   O     O_R   0.827130 0.207110 0.321880 -0.517199
O12   O     O_R   0.172870 0.792890 0.678120 -0.517258
O13   O     O_R   0.690610 0.878650 0.307880 -0.513479
O14   O     O_R   0.309390 0.121350 0.692120 -0.520363
O15   O     O_R   0.809390 0.378650 0.192120 -0.513479
O16   O     O_R   0.190610 0.621350 0.807880 -0.520363
C9    C     C_R   0.646785 0.539287 0.161554 0.780422
C10   C     C_R   0.352735 0.460588 0.838595 0.768027
C11   C     C_R   0.853215 0.039287 0.338446 0.780423
C12   C     C_R   0.147265 0.960589 0.661405 0.768022
C13   C     C_1   0.382788 0.971301 0.614170 -0.220589
C14   C     C_1   0.618385 0.027636 0.387004 -0.201287
C15   C     C_1   0.117212 0.471300 0.885830 -0.220589
C16   C     C_1   0.881615 0.527636 0.112996 -0.201288
O17   O     O_3   0.755980 0.544260 0.292580 -0.366048
O18   O     O_3   0.244020 0.455740 0.707420 -0.363369
O19   O     O_3   0.744020 0.044260 0.207420 -0.366049
O20   O     O_3   0.255980 0.955740 0.792580 -0.363369
V1    V     V_3+5 0.748890 0.818640 0.242100 1.426658
V2    V     V_3+5 0.251110 0.181360 0.757900 1.446372
V3    V     V_3+5 0.751110 0.318640 0.257900 1.426660
V4    V     V_3+5 0.248890 0.681360 0.742100 1.446371
C17   C     C_R   0.085494 0.961452 0.608872 -0.217679
C18   C     C_R   0.916322 0.036197 0.390164 -0.203472
C19   C     C_R   0.414506 0.461450 0.891128 -0.217666
C20   C     C_R   0.583677 0.536198 0.109836 -0.203481
C21   C     C_1   0.426440 0.981017 0.571644 -0.006933
C22   C     C_1   0.574727 0.017553 0.429513 0.001770
C23   C     C_1   0.073560 0.481017 0.928356 -0.006932
C24   C     C_1   0.925272 0.517553 0.070487 0.001771
C25   C     C_R   0.033076 0.152109 0.432144 0.307717
C26   C     C_R   0.973484 0.821045 0.563481 0.340278
C27   C     C_R   0.466925 0.652116 0.067854 0.307719
C28   C     C_R   0.526515 0.321037 0.936521 0.340278
C29   C     C_R   0.973356 0.159567 0.382636 0.316160
C30   C     C_R   0.027639 0.844259 0.617697 0.317421
C31   C     C_R   0.526645 0.659572 0.117363 0.316168
C32   C     C_R   0.472360 0.344251 0.882304 0.317406
C33   C     C_R   0.918015 0.918771 0.449072 -0.279341
C34   C     C_R   0.086523 0.063872 0.547271 -0.270134
C35   C     C_R   0.581984 0.418767 0.050930 -0.279331
C36   C     C_R   0.413478 0.563875 0.952728 -0.270140
C37   C     C_R   0.973828 0.928910 0.502158 -0.052137
C38   C     C_R   0.031115 0.049546 0.494017 -0.034113
C39   C     C_R   0.526171 0.428907 0.997842 -0.052121
C40   C     C_R   0.468885 0.549548 0.005982 -0.034118
H1    H     H_    0.131337 0.152720 0.540771 0.183330
H2    H     H_    0.873999 0.826180 0.454793 0.183143
H3    H     H_    0.368664 0.652728 0.959227 0.183331
H4    H     H_    0.625999 0.326171 0.045210 0.183152
O21   O     O_3   0.024595 0.748964 0.679491 -0.552948
C41   C     C_3   0.984273 0.859924 0.721010 0.098545
H5    H     H_    0.928488 0.855842 0.700047 0.159418
H6    H     H_    0.002172 0.012223 0.724645 0.097876
C42   C     C_3   0.990997 0.777672 0.793573 -0.697232
H7    H     H_    0.045672 0.790526 0.816915 0.219965
H8    H     H_    0.957044 0.858449 0.825891 0.178194
H9    H     H_    0.975361 0.624245 0.792199 0.226255
O22   O     O_3   0.971371 0.273422 0.323663 -0.559134
C43   C     C_3   0.995036 0.462720 0.339306 0.129770
H10   H     H_    0.051371 0.473978 0.333624 0.170964
H11   H     H_    0.984909 0.510526 0.391895 0.112871
C44   C     C_3   0.958284 0.601482 0.288184 -0.712092
H12   H     H_    0.901677 0.591770 0.291501 0.244998
H13   H     H_    0.976077 0.750220 0.300471 0.170578
H14   H     H_    0.970179 0.565362 0.235292 0.208775
O23   O     O_3   0.475402 0.248953 0.820511 -0.552960
C45   C     C_3   0.515732 0.359896 0.778994 0.098530
H15   H     H_    0.571518 0.355771 0.799953 0.159427
H16   H     H_    0.497847 0.512211 0.775366 0.097877
C46   C     C_3   0.508996 0.277664 0.706427 -0.697229
H17   H     H_    0.454320 0.290558 0.683088 0.219964
H18   H     H_    0.542953 0.358428 0.674109 0.178196
H19   H     H_    0.524619 0.124227 0.707794 0.226250
O24   O     O_3   0.528630 0.773430 0.176335 -0.559133
C47   C     C_3   0.504969 0.962731 0.160690 0.129764
H20   H     H_    0.448634 0.973999 0.166365 0.170968
H21   H     H_    0.515103 0.010534 0.108102 0.112878
C48   C     C_3   0.541719 0.101488 0.211814 -0.712086
H22   H     H_    0.598327 0.091772 0.208501 0.244999
H23   H     H_    0.523928 0.250227 0.199528 0.170578
H24   H     H_    0.529820 0.065365 0.264705 0.208776
O25   O     O_3   0.093285 0.248656 0.420902 -0.569867
C49   C     C_3   0.132926 0.129420 0.381510 0.075526
H25   H     H_    0.104431 0.099182 0.329933 0.141494
H26   H     H_    0.145996 0.991264 0.408689 0.124484
C50   C     C_3   0.200528 0.230747 0.370708 -0.720452
H27   H     H_    0.230600 0.260673 0.421324 0.224861
H28   H     H_    0.232207 0.138392 0.339724 0.179508
H29   H     H_    0.189330 0.368202 0.342890 0.216650
O26   O     O_3   0.918072 0.701389 0.572400 -0.555793
C51   C     C_3   0.937609 0.510496 0.559530 0.121204
H30   H     H_    0.980042 0.461429 0.598651 0.157082
H31   H     H_    0.954966 0.495952 0.507123 0.102078
C52   C     C_3   0.875299 0.379584 0.563473 -0.710335
H32   H     H_    0.832781 0.420735 0.523369 0.220157
H33   H     H_    0.890319 0.228594 0.554806 0.186552
H34   H     H_    0.856427 0.390932 0.615175 0.226486
O27   O     O_3   0.406717 0.748670 0.079095 -0.569867
C53   C     C_3   0.367074 0.629440 0.118487 0.075527
H35   H     H_    0.395568 0.599199 0.170065 0.141495
H36   H     H_    0.354002 0.491285 0.091308 0.124484
C54   C     C_3   0.299474 0.730777 0.129289 -0.720453
H37   H     H_    0.269403 0.760707 0.078673 0.224862
H38   H     H_    0.267793 0.638425 0.160272 0.179508
H39   H     H_    0.310673 0.868229 0.157107 0.216650
O28   O     O_3   0.581927 0.201377 0.927605 -0.555801
C55   C     C_3   0.562384 0.010479 0.940460 0.121193
H40   H     H_    0.519981 0.961408 0.901308 0.157114
H41   H     H_    0.544983 0.995925 0.992848 0.102079
C56   C     C_3   0.624706 0.879582 0.936566 -0.710378
H42   H     H_    0.667191 0.920729 0.976705 0.220154
H43   H     H_    0.609681 0.728586 0.945213 0.186562
H44   H     H_    0.643625 0.890951 0.884886 0.226497

loop_
_geom_bond_atom_site_label_1
_geom_bond_atom_site_label_2
_ccdc_geom_bond_type
C34   C38   A    
C1    C21   S    
C55   H40   S    
O5    V1    S    
C42   H8    S    
C42   H7    S    
C5    C16   S    
C3    C23   S    
C11   C18   S    
C6    C15   S    
C31   O24   S    
C44   H14   S    
C48   H22   S    
C27   C31   A    
O22   C43   S    
C50   H28   S    
O24   C47   S    
O18   V4    S    
O19   V1    S    
C17   C34   A    
C52   H32   S    
O21   C41   S    
C18   C29   A    
C25   O25   S    
O12   V4    S    
C45   H16   S    
C20   C35   A    
O14   V2    S    
C12   C17   S    
C5    O15   A    
C49   C50   S    
C6    O16   A    
C53   H35   S    
C54   H39   S    
C48   H23   S    
C51   H30   S    
C36   H3    S    
O10   C10   A    
C2    C22   S    
C55   H41   S    
O6    V2    S    
C41   H5    S    
C46   H18   S    
O11   C11   A    
C1    C2    T    
C33   H2    S    
O5    C5    A    
C4    C24   S    
C52   H34   S    
O7    C7    A    
O8    C8    A    
C15   C23   T    
O1    C9    A    
C16   C24   T    
C47   H20   S    
C9    C20   S    
C44   H13   S    
C10   C19   S    
C44   H12   S    
C53   H36   S    
C50   H29   S    
C49   H25   S    
O25   C49   S    
O20   V4    S    
C45   H15   S    
O9    V1    S    
O12   C12   A    
C55   C56   S    
C8    C13   S    
O23   C45   S    
C28   C39   A    
C26   O26   S    
C18   C33   A    
C13   C21   T    
C53   C54   S    
O19   V3    S    
C35   H4    S    
O6    C6    A    
C34   H1    S    
C28   O28   S    
C41   C42   S    
O2    C10   A    
O17   V3    S    
C46   H19   S    
C47   H21   S    
C51   C52   S    
C54   H37   S    
O11   V3    S    
C19   C36   A    
O4    V2    S    
C29   O22   S    
C27   O27   S    
C42   H9    S    
C48   H24   S    
C7    C14   S    
O17   V1    S    
C56   H42   S    
C8    O14   A    
C25   C38   A    
O18   V2    S    
C14   C22   T    
C27   C40   A    
C45   C46   S    
C3    C4    T    
C33   C37   A    
C50   H27   S    
C35   C39   A    
C47   C48   S    
C49   H26   S    
C36   C40   A    
O9    C9    A    
C56   H44   S    
O3    C11   A    
O10   V2    S    
C26   C30   A    
O26   C51   S    
C43   H10   S    
C43   C44   S    
C32   O23   S    
O28   C55   S    
C30   O21   S    
C25   C29   A    
O20   V2    S    
O16   V4    S    
C20   C31   A    
C43   H11   S    
C37   C38   A    
C51   H31   S    
C17   C30   A    
C54   H38   S    
O1    V3    S    
C39   C40   A    
O2    V4    S    
C19   C32   A    
C7    O13   A    
O13   V1    S    
O3    V1    S    
O4    C12   A    
C26   C37   A    
O7    V3    S    
C41   H6    S    
O8    V4    S    
C52   H33   S    
C46   H17   S    
O27   C53   S    
O15   V3    S    
C28   C32   A    
C56   H43   S    
