data_mof_unit_pretest_1663.cif
_audit_creation_date              2012-12-10T17:25:56-0500
_audit_creation_method            fapswitch 2.2
_symmetry_space_group_name_H-M    P1
_symmetry_Int_Tables_number       1
_space_group_crystal_system       triclinic
_cell_length_a                    36.505486
_cell_length_b                    29.396198
_cell_length_c                    21.652141
_cell_angle_alpha                 90.162773
_cell_angle_beta                  126.374015
_cell_angle_gamma                 89.903461
_cell_volume                      18708.2049008

loop_
_atom_site_label
_atom_site_type_symbol
_atom_type_description
_atom_site_fract_x
_atom_site_fract_y
_atom_site_fract_z
_atom_type_partial_charge
C1    C     C_R   0.914448 0.000000 0.914470 0.811319
C2    C     C_R   0.085552 1.000000 0.085530 0.811318
C3    C     C_R   0.414448 0.500000 0.914470 0.811319
C4    C     C_R   0.585552 0.500000 0.085530 0.811318
C5    C     C_1   0.820927 0.000000 0.820942 0.004766
C6    C     C_1   0.179073 1.000000 0.179058 0.004766
C7    C     C_1   0.320927 0.500000 0.820942 0.004766
C8    C     C_1   0.679073 0.500000 0.179058 0.004766
C9    C     C_1   0.770667 0.000000 0.770675 0.002213
C10   C     C_1   0.229333 1.000000 0.229325 0.002213
C11   C     C_1   0.270667 0.500000 0.770675 0.002213
C12   C     C_1   0.729333 0.500000 0.229325 0.002213
C13   C     C_1   0.728273 0.000000 0.728274 0.001811
C14   C     C_1   0.271727 0.000000 0.271726 0.001811
C15   C     C_1   0.228273 0.500000 0.728274 0.001811
C16   C     C_1   0.771727 0.500000 0.271726 0.001811
C17   C     C_1   0.678009 0.000000 0.678003 0.001353
C18   C     C_1   0.321991 0.000000 0.321997 0.001353
C19   C     C_1   0.178009 0.500000 0.678003 0.001353
C20   C     C_1   0.821991 0.500000 0.321997 0.001353
C21   C     C_1   0.635614 1.000000 0.635605 -0.187810
C22   C     C_1   0.364386 0.000000 0.364395 -0.187809
C23   C     C_1   0.135614 0.500000 0.635605 -0.187810
C24   C     C_1   0.864386 0.500000 0.364395 -0.187809
C25   C     C_R   0.000000 0.914461 0.500037 0.807335
C26   C     C_R   1.000000 0.085539 0.499963 0.807336
C27   C     C_R   0.500000 0.414461 0.500037 0.807335
C28   C     C_R   0.500000 0.585539 0.499963 0.807335
C29   C     C_R   0.999980 0.002335 0.620917 0.827037
C30   C     C_R   0.000020 0.997664 0.379083 0.827038
C31   C     C_R   0.499980 0.502335 0.620917 0.827037
C32   C     C_R   0.500020 0.497664 0.379083 0.827038
C33   C     C_R   0.500000 0.084472 0.500074 0.795245
C34   C     C_R   0.500000 0.915527 0.499926 0.795245
C35   C     C_R   0.000000 0.584472 0.500074 0.795245
C36   C     C_R   1.000000 0.415527 0.499926 0.795245
C37   C     C_R   0.584464 1.000000 0.584457 0.795217
C38   C     C_R   0.415536 0.000000 0.415543 0.795218
C39   C     C_R   0.084464 0.500000 0.584457 0.795217
C40   C     C_R   0.915535 0.500000 0.415543 0.795218
C41   C     C_1   1.000000 0.863333 0.500097 -0.212108
C42   C     C_1   1.000000 0.136667 0.499903 -0.212108
C43   C     C_1   0.500000 0.363333 0.500097 -0.212108
C44   C     C_1   0.500000 0.636667 0.499903 -0.212109
C45   C     C_R   0.999987 0.999902 0.879013 0.850038
C46   C     C_R   0.000013 0.000098 0.120987 0.850039
C47   C     C_R   0.499987 0.499902 0.879013 0.850038
C48   C     C_R   0.500013 0.500098 0.120987 0.850039
C49   C     C_1   1.000000 0.820945 0.500149 0.002597
C50   C     C_1   1.000000 0.179055 0.499851 0.002597
C51   C     C_1   0.500000 0.320945 0.500149 0.002597
C52   C     C_1   0.500000 0.679055 0.499851 0.002597
C53   C     C_1   0.000000 0.770683 0.500200 0.001582
C54   C     C_1   1.000000 0.229317 0.499800 0.001582
C55   C     C_1   0.500000 0.270683 0.500200 0.001582
C56   C     C_1   0.500000 0.729317 0.499800 0.001582
C57   C     C_1   0.500000 0.228288 0.500231 0.001608
C58   C     C_1   0.500000 0.771712 0.499769 0.001608
C59   C     C_1   0.000000 0.728288 0.500231 0.001608
C60   C     C_1   1.000000 0.271712 0.499769 0.001608
C61   C     C_1   0.500000 0.178021 0.500242 0.001234
C62   C     C_1   0.500000 0.821978 0.499758 0.001234
C63   C     C_1   0.000000 0.678021 0.500242 0.001234
C64   C     C_1   1.000000 0.321978 0.499758 0.001234
C65   C     C_1   0.500000 0.135625 0.500211 -0.187919
C66   C     C_1   0.500000 0.864374 0.499789 -0.187918
C67   C     C_1   0.000000 0.635625 0.500211 -0.187919
C68   C     C_1   1.000000 0.364374 0.499789 -0.187918
C69   C     C_3   0.956812 0.026311 0.744038 -0.052805
C70   C     C_3   0.043188 0.973689 0.255962 -0.052805
C71   C     C_3   0.956844 0.973689 0.169632 -0.052797
C72   C     C_3   0.043156 0.026310 0.830368 -0.052798
C73   C     C_3   0.456812 0.526311 0.744038 -0.052805
C74   C     C_3   0.543188 0.473689 0.255962 -0.052805
C75   C     C_3   0.456844 0.473689 0.169632 -0.052798
C76   C     C_3   0.543156 0.526310 0.830368 -0.052798
C77   C     C_3   0.956017 0.026705 0.671353 -0.015787
C78   C     C_3   0.043983 0.973295 0.328647 -0.015787
C79   C     C_3   0.956053 0.973295 0.240730 -0.015796
C80   C     C_3   0.043947 0.026705 0.759269 -0.015795
C81   C     C_3   0.456017 0.526705 0.671353 -0.015786
C82   C     C_3   0.543983 0.473295 0.328647 -0.015788
C83   C     C_3   0.456053 0.473295 0.240730 -0.015795
C84   C     C_3   0.543947 0.526705 0.759269 -0.015795
C85   C     C_3   0.999983 0.950672 0.784600 -0.350742
C86   C     C_3   0.000017 0.049328 0.215400 -0.350741
C87   C     C_3   0.499983 0.450672 0.784600 -0.350743
C88   C     C_3   0.500017 0.549328 0.215400 -0.350742
C89   C     C_3   0.999984 0.000130 0.810691 0.003185
C90   C     C_3   0.000016 0.999870 0.189309 0.003185
C91   C     C_3   0.499984 0.500130 0.810691 0.003185
C92   C     C_3   0.500016 0.499870 0.189309 0.003185
C93   C     C_3   0.999981 0.002092 0.689354 0.049134
C94   C     C_3   0.000019 0.997908 0.310646 0.049134
C95   C     C_3   0.499981 0.502092 0.689354 0.049134
C96   C     C_3   0.500019 0.497908 0.310646 0.049134
C97   C     C_3   0.999981 0.950243 0.712641 0.277236
C98   C     C_3   0.000018 0.049756 0.287359 0.277237
C99   C     C_3   0.499981 0.450243 0.712641 0.277236
C100  C     C_3   0.500019 0.549756 0.287359 0.277236
C101  C     C_1   0.863315 0.000000 0.863335 -0.211952
C102  C     C_1   0.136685 1.000000 0.136665 -0.211952
C103  C     C_1   0.363315 0.500000 0.863335 -0.211952
C104  C     C_1   0.636685 0.500000 0.136665 -0.211952
Cu1   Cu    Cu3+1 0.000000 0.957500 0.000000 0.935009
Cu2   Cu    Cu3+1 0.000000 0.042500 0.000000 0.935009
Cu3   Cu    Cu3+1 0.500000 0.457500 0.000000 0.935009
Cu4   Cu    Cu3+1 0.500000 0.542500 0.000000 0.935009
Cu5   Cu    Cu3+1 0.957500 0.000000 0.457520 0.930982
Cu6   Cu    Cu3+1 0.042500 0.000000 0.542480 0.930981
Cu7   Cu    Cu3+1 0.457500 0.500000 0.457520 0.930982
Cu8   Cu    Cu3+1 0.542500 0.500000 0.542480 0.930982
Cu9   Cu    Cu3+1 0.499970 0.000000 0.437500 0.961322
Cu10  Cu    Cu3+1 0.500030 0.000000 0.562500 0.961322
Cu11  Cu    Cu3+1 0.999970 0.500000 0.437500 0.961322
Cu12  Cu    Cu3+1 0.000030 0.500000 0.562500 0.961322
H1    H     H_    0.959699 0.061875 0.764383 0.180645
H2    H     H_    0.040301 0.938125 0.235617 0.180645
H3    H     H_    0.959729 0.938126 0.155058 0.180645
H4    H     H_    0.040271 0.061874 0.844942 0.180645
H5    H     H_    0.459699 0.561875 0.764383 0.180645
H6    H     H_    0.540301 0.438125 0.235617 0.180645
H7    H     H_    0.459729 0.438126 0.155058 0.180645
H8    H     H_    0.540271 0.561874 0.844942 0.180645
H9    H     H_    0.926141 0.007135 0.625080 0.194865
H10   H     H_    0.073859 0.992864 0.374920 0.194865
H11   H     H_    0.926178 0.992865 0.227262 0.194868
H12   H     H_    0.073822 0.007135 0.772738 0.194867
H13   H     H_    0.426140 0.507135 0.625080 0.194865
H14   H     H_    0.573859 0.492864 0.374920 0.194864
H15   H     H_    0.426178 0.492865 0.227262 0.194867
H16   H     H_    0.573822 0.507135 0.772738 0.194867
H17   H     H_    0.970235 0.931836 0.773538 0.175988
H18   H     H_    0.029765 0.068164 0.226462 0.175987
H19   H     H_    0.970269 0.068165 0.166975 0.175992
H20   H     H_    0.029731 0.931835 0.833025 0.175991
H21   H     H_    0.470235 0.431836 0.773538 0.175988
H22   H     H_    0.529765 0.568164 0.226462 0.175987
H23   H     H_    0.470269 0.568165 0.166975 0.175992
H24   H     H_    0.529731 0.431835 0.833025 0.175992
O1    O     O_R   0.938020 0.964110 0.938040 -0.563154
O2    O     O_R   0.061980 0.035890 0.061960 -0.563155
O3    O     O_R   0.061980 0.964110 0.061960 -0.563152
O4    O     O_R   0.938020 0.035890 0.938040 -0.563152
O5    O     O_R   0.438020 0.464110 0.938040 -0.563154
O6    O     O_R   0.561980 0.535890 0.061960 -0.563154
O7    O     O_R   0.561980 0.464110 0.061960 -0.563152
O8    O     O_R   0.438020 0.535890 0.938040 -0.563152
O9    O     O_R   0.999990 0.964110 0.908840 -0.586306
O10   O     O_R   0.000010 0.035890 0.091160 -0.586306
O11   O     O_R   0.000010 0.964110 0.091160 -0.597567
O12   O     O_R   0.999990 0.035890 0.908840 -0.597566
O13   O     O_R   0.499990 0.464110 0.908840 -0.586306
O14   O     O_R   0.500010 0.535890 0.091160 -0.586306
O15   O     O_R   0.500010 0.464110 0.091160 -0.597567
O16   O     O_R   0.499990 0.535890 0.908840 -0.597566
O17   O     O_R   0.964100 0.938030 0.464100 -0.565841
O18   O     O_R   0.035900 0.061970 0.535900 -0.565841
O19   O     O_R   0.035900 0.938030 0.535900 -0.565845
O20   O     O_R   0.964100 0.061970 0.464100 -0.565845
O21   O     O_R   0.464100 0.438030 0.464100 -0.565841
O22   O     O_R   0.535900 0.561970 0.535900 -0.565841
O23   O     O_R   0.535900 0.438030 0.535900 -0.565845
O24   O     O_R   0.464100 0.561970 0.464100 -0.565845
O25   O     O_R   0.964110 0.000000 0.555280 -0.588937
O26   O     O_R   0.035890 0.000000 0.444720 -0.588936
O27   O     O_R   0.464110 0.500000 0.555280 -0.588937
O28   O     O_R   0.535890 0.500000 0.444720 -0.588936
O29   O     O_R   0.035850 0.000000 0.627010 -0.588913
O30   O     O_R   0.964150 0.000000 0.372990 -0.588913
O31   O     O_R   0.535850 0.500000 0.627010 -0.588913
O32   O     O_R   0.464150 0.500000 0.372990 -0.588913
O33   O     O_R   0.499940 0.061950 0.447200 -0.556862
O34   O     O_R   0.500060 0.938050 0.552800 -0.556863
O35   O     O_R   0.500060 0.061950 0.552800 -0.557035
O36   O     O_R   0.499940 0.938050 0.447200 -0.557036
O37   O     O_R   0.999940 0.561950 0.447200 -0.556862
O38   O     O_R   0.000060 0.438050 0.552800 -0.556863
O39   O     O_R   0.000060 0.561950 0.552800 -0.557035
O40   O     O_R   0.999940 0.438050 0.447200 -0.557036
O41   O     O_R   0.561950 0.000000 0.509180 -0.557091
O42   O     O_R   0.438050 0.000000 0.490820 -0.557091
O43   O     O_R   0.061950 0.500000 0.509180 -0.557091
O44   O     O_R   0.938050 0.500000 0.490820 -0.557091
O45   O     O_R   0.561950 0.000000 0.614710 -0.556756
O46   O     O_R   0.438050 0.000000 0.385290 -0.556757
O47   O     O_R   0.061950 0.500000 0.614710 -0.556756
O48   O     O_R   0.938050 0.500000 0.385290 -0.556757
C105  C     C_3   0.911292 0.008663 0.724917 -0.902666
H25   H     H_    0.910749 0.011411 0.775455 0.235016
H26   H     H_    0.882829 0.029732 0.678624 0.245458
H27   H     H_    0.904755 0.972843 0.705177 0.235913
C106  C     C_3   0.088708 0.991337 0.275083 -0.902666
H28   H     H_    0.089251 0.988589 0.224545 0.235016
H29   H     H_    0.095245 0.027157 0.294823 0.235913
H30   H     H_    0.117170 0.970268 0.321376 0.245458
C107  C     C_3   0.911322 0.991339 0.097727 -0.902655
H31   H     H_    0.910776 0.988590 0.046100 0.235022
H32   H     H_    0.882861 0.970271 0.087106 0.245452
H33   H     H_    0.904788 0.027159 0.104397 0.235910
C108  C     C_3   0.088678 0.008661 0.902273 -0.902654
H34   H     H_    0.117139 0.029729 0.912894 0.245452
H35   H     H_    0.089224 0.011410 0.953900 0.235021
H36   H     H_    0.095212 0.972841 0.895603 0.235909
C109  C     C_3   0.411291 0.508663 0.724917 -0.902665
H37   H     H_    0.410749 0.511411 0.775455 0.235016
H38   H     H_    0.382829 0.529732 0.678624 0.245458
H39   H     H_    0.404755 0.472843 0.705177 0.235913
C110  C     C_3   0.588708 0.491337 0.275083 -0.902666
H40   H     H_    0.589251 0.488589 0.224545 0.235016
H41   H     H_    0.595245 0.527157 0.294823 0.235913
H42   H     H_    0.617170 0.470268 0.321376 0.245458
C111  C     C_3   0.411322 0.491339 0.097727 -0.902654
H43   H     H_    0.410776 0.488590 0.046100 0.235021
H44   H     H_    0.382861 0.470271 0.087106 0.245452
H45   H     H_    0.404788 0.527159 0.104397 0.235909
C112  C     C_3   0.588678 0.508661 0.902273 -0.902655
H46   H     H_    0.589224 0.511409 0.953900 0.235021
H47   H     H_    0.595212 0.472840 0.895603 0.235909
H48   H     H_    0.617139 0.529729 0.912894 0.245452
C113  C     C_3   0.946159 0.075089 0.636520 -0.878820
H49   H     H_    0.909164 0.082260 0.603721 0.234432
H50   H     H_    0.963538 0.102075 0.680560 0.232710
H51   H     H_    0.955302 0.078732 0.596284 0.245133
C114  C     C_3   0.053841 0.924911 0.363480 -0.878820
H52   H     H_    0.090836 0.917740 0.396279 0.234432
H53   H     H_    0.044698 0.921267 0.403716 0.245133
H54   H     H_    0.036462 0.897925 0.319440 0.232710
C115  C     C_3   0.946196 0.924911 0.255852 -0.878808
H55   H     H_    0.955343 0.921267 0.314374 0.245133
H56   H     H_    0.909201 0.917741 0.214673 0.234432
H57   H     H_    0.963573 0.897925 0.246560 0.232707
C116  C     C_3   0.053804 0.075089 0.744148 -0.878808
H58   H     H_    0.090799 0.082259 0.785327 0.234432
H59   H     H_    0.044657 0.078733 0.685626 0.245133
H60   H     H_    0.036427 0.102075 0.753440 0.232706
C117  C     C_3   0.446159 0.575089 0.636520 -0.878818
H61   H     H_    0.409164 0.582260 0.603721 0.234432
H62   H     H_    0.463538 0.602075 0.680560 0.232710
H63   H     H_    0.455302 0.578732 0.596284 0.245132
C118  C     C_3   0.553841 0.424911 0.363480 -0.878820
H64   H     H_    0.590836 0.417740 0.396279 0.234432
H65   H     H_    0.544698 0.421267 0.403716 0.245133
H66   H     H_    0.536462 0.397925 0.319440 0.232710
C119  C     C_3   0.446196 0.424911 0.255852 -0.878807
H67   H     H_    0.455343 0.421267 0.314374 0.245133
H68   H     H_    0.409201 0.417741 0.214673 0.234432
H69   H     H_    0.463573 0.397925 0.246560 0.232706
C120  C     C_3   0.553804 0.575089 0.744148 -0.878805
H70   H     H_    0.590799 0.582259 0.785327 0.234431
H71   H     H_    0.544657 0.578733 0.685626 0.245132
H72   H     H_    0.536427 0.602075 0.753440 0.232706
C121  C     C_3   0.957886 0.922607 0.647552 -0.847750
H73   H     H_    0.925248 0.935283 0.633554 0.209487
H74   H     H_    0.955939 0.921813 0.594466 0.244291
H75   H     H_    0.960234 0.886686 0.665521 0.232758
C122  C     C_3   0.042113 0.077393 0.352448 -0.847749
H76   H     H_    0.074752 0.064717 0.366446 0.209487
H77   H     H_    0.039766 0.113314 0.334479 0.232757
H78   H     H_    0.044061 0.078187 0.405534 0.244291
C123  C     C_3   0.957925 0.077393 0.268272 -0.847741
H79   H     H_    0.960272 0.113315 0.254997 0.232756
H80   H     H_    0.925286 0.064717 0.217003 0.209487
H81   H     H_    0.955980 0.078188 0.317466 0.244291
C124  C     C_3   0.042075 0.922607 0.731728 -0.847740
H82   H     H_    0.044020 0.921812 0.682533 0.244291
H83   H     H_    0.074714 0.935283 0.782997 0.209487
H84   H     H_    0.039728 0.886685 0.745003 0.232756
C125  C     C_3   0.457886 0.422607 0.647552 -0.847748
H85   H     H_    0.460234 0.386686 0.665520 0.232757
H86   H     H_    0.425248 0.435283 0.633554 0.209487
H87   H     H_    0.455939 0.421813 0.594466 0.244291
C126  C     C_3   0.542113 0.577393 0.352448 -0.847750
H88   H     H_    0.574752 0.564717 0.366446 0.209487
H89   H     H_    0.539766 0.613314 0.334479 0.232758
H90   H     H_    0.544061 0.578187 0.405534 0.244291
C127  C     C_3   0.457925 0.577393 0.268272 -0.847740
H91   H     H_    0.460272 0.613315 0.254997 0.232756
H92   H     H_    0.425285 0.564717 0.217003 0.209487
H93   H     H_    0.455980 0.578188 0.317466 0.244291
C128  C     C_3   0.542075 0.422607 0.731728 -0.847741
H94   H     H_    0.574714 0.435283 0.782997 0.209487
H95   H     H_    0.539728 0.386685 0.745003 0.232756
H96   H     H_    0.544020 0.421812 0.682533 0.244291

loop_
_geom_bond_atom_site_label_1
_geom_bond_atom_site_label_2
_ccdc_geom_bond_type
C58   C62   S    
C107  H33   S    
C119  H68   S    
C35   O37   A    
C77   C93   S    
Cu2   O10   S    
Cu12  O38   S    
C100  C127  S    
C70   C78   S    
C108  H34   S    
C14   C18   S    
C69   C77   S    
Cu7   Cu8   S    
C36   O40   A    
C87   H24   S    
Cu5   O17   S    
C76   C84   S    
C71   C79   S    
C53   C59   T    
C28   O22   A    
C54   C60   T    
C109  H37   S    
C112  H48   S    
C15   C19   S    
C118  H65   S    
C28   O24   A    
C120  H70   S    
C50   C54   S    
Cu10  O45   S    
C75   H7    S    
C64   C68   T    
C97   C121  S    
C114  H52   S    
C122  H76   S    
C115  H57   S    
C87   C91   S    
Cu1   O1    S    
C121  H73   S    
Cu3   O5    S    
C95   C99   S    
C109  H39   S    
Cu8   O31   S    
C47   O16   A    
C2    C102  S    
C84   H16   S    
Cu11  Cu12  S    
C22   C38   S    
Cu12  O44   S    
C126  H90   S    
C125  H85   S    
C107  H32   S    
C118  H64   S    
C74   C92   S    
C105  H26   S    
C9    C13   T    
C30   O30   A    
C48   O14   A    
C40   O44   A    
C114  H53   S    
C11   C15   T    
C86   H18   S    
C79   C115  S    
C88   C92   S    
C81   C117  S    
C106  H29   S    
C126  H89   S    
Cu7   O21   S    
C25   O19   A    
Cu3   Cu4   S    
C116  H59   S    
C26   O20   A    
Cu7   O32   S    
C82   H14   S    
C33   O33   A    
C124  H82   S    
Cu5   Cu6   S    
C112  H47   S    
Cu4   O6    S    
Cu11  O40   S    
Cu6   O18   S    
C127  H92   S    
C8    C12   S    
C27   O23   A    
C44   C52   T    
C78   C114  S    
C109  H38   S    
C46   O11   A    
C32   O32   A    
C4    O6    A    
C3    O8    A    
C39   O43   A    
C7    C103  T    
C119  H67   S    
C2    O3    A    
C108  H35   S    
C34   C66   S    
C70   C90   S    
C87   H21   S    
C69   C89   S    
C77   H9    S    
C73   C81   S    
C124  H84   S    
Cu7   O27   S    
Cu2   O2    S    
C86   C98   S    
C87   C99   S    
C111  H44   S    
C35   O39   A    
Cu11  O48   S    
Cu1   O11   S    
Cu12  O47   S    
C63   C67   T    
C120  H71   S    
C82   C96   S    
C62   C66   T    
C74   C110  S    
C33   C65   S    
C76   H8    S    
C111  H43   S    
C12   C16   T    
C80   H12   S    
C85   C97   S    
C30   O26   A    
C79   C94   S    
C110  H40   S    
C86   C90   S    
C25   C41   S    
C123  H80   S    
C125  H86   S    
C85   C89   S    
C19   C23   T    
C30   C94   S    
C47   O13   A    
C51   C55   S    
C112  H46   S    
Cu10  O42   S    
C4    O7    A    
C28   C44   S    
C17   C21   T    
C72   C80   S    
C82   C118  S    
C37   O45   A    
C79   H11   S    
C128  H96   S    
C84   C95   S    
C76   C91   S    
C105  H27   S    
C7    C11   S    
Cu11  O37   S    
C88   H23   S    
C83   H15   S    
C115  H55   S    
C34   O34   A    
C61   C65   T    
C78   C94   S    
C123  H81   S    
C113  H49   S    
Cu3   O7    S    
C121  H74   S    
C107  H31   S    
Cu4   O16   S    
C35   C67   S    
C76   C112  S    
C16   C20   S    
C106  H30   S    
C37   O41   A    
C83   C119  S    
C126  H88   S    
C29   O25   A    
C36   O38   A    
C88   C100  S    
C122  H77   S    
C57   C61   S    
C8    C104  T    
C73   C91   S    
C83   C96   S    
Cu3   O13   S    
Cu5   O25   S    
C75   C92   S    
C42   C50   T    
Cu9   O36   S    
C40   O48   A    
C99   C128  S    
C98   C122  S    
C31   C95   S    
Cu10  O35   S    
C74   H6    S    
C48   O15   A    
Cu2   O12   S    
C3    O5    A    
C1    C101  S    
C73   H5    S    
C72   H4    S    
C117  H62   S    
C25   O17   A    
C81   H13   S    
C2    O2    A    
C108  H36   S    
C127  H93   S    
Cu9   O41   S    
C128  H95   S    
C34   O36   A    
C69   C105  S    
C114  H54   S    
C78   H10   S    
C81   C95   S    
C93   C97   S    
C75   C83   S    
C45   C89   S    
Cu5   O30   S    
C26   C42   S    
Cu9   O33   S    
Cu9   Cu10  S    
C74   C82   S    
C111  H45   S    
C3    C103  S    
Cu8   O23   S    
C73   C109  S    
C117  H63   S    
C24   C40   S    
C120  H72   S    
C118  H66   S    
C46   O10   A    
C84   C120  S    
C18   C22   T    
C26   O18   A    
C47   C91   S    
C80   C116  S    
Cu7   O24   S    
C31   O27   A    
C75   C111  S    
Cu1   O3    S    
C121  H75   S    
Cu11  O43   S    
C36   C68   S    
Cu2   O4    S    
C46   C90   S    
C71   H3    S    
C113  H51   S    
C41   C49   T    
Cu1   O9    S    
Cu1   Cu2   S    
C88   H22   S    
C59   C63   S    
C38   O42   A    
C5    C101  T    
C13   C17   S    
C100  C126  S    
C60   C64   S    
C122  H78   S    
C45   O12   A    
C55   C57   T    
C128  H94   S    
C39   O47   A    
C97   C124  S    
C113  H50   S    
C124  H83   S    
C38   O46   A    
Cu8   O22   S    
C27   O21   A    
C20   C24   T    
C29   C93   S    
C32   C96   S    
Cu6   O26   S    
C98   C123  S    
C43   C51   T    
C123  H79   S    
C71   C90   S    
C31   O31   A    
C70   H2    S    
C70   C106  S    
C49   C53   S    
Cu9   O46   S    
C96   C100  S    
Cu4   O14   S    
C69   H1    S    
Cu12  O39   S    
C110  H41   S    
C56   C58   T    
C4    C104  S    
C45   O9    A    
C6    C102  T    
C105  H25   S    
C33   O35   A    
C116  H60   S    
C117  H61   S    
C125  H87   S    
C1    O1    A    
C6    C10   S    
C85   H20   S    
C10   C14   T    
Cu6   O29   S    
C27   C43   S    
C86   H19   S    
Cu10  O34   S    
C71   C107  S    
C21   C37   S    
C115  H56   S    
C106  H28   S    
C48   C92   S    
C119  H69   S    
C99   C125  S    
C1    O4    A    
C32   O28   A    
C94   C98   S    
C77   C113  S    
C72   C89   S    
C5    C9    S    
C29   O29   A    
C80   C93   S    
C127  H91   S    
Cu5   O20   S    
C110  H42   S    
C23   C39   S    
Cu3   O15   S    
Cu6   O19   S    
C52   C56   S    
C116  H58   S    
C85   H17   S    
C72   C108  S    
Cu4   O8    S    
Cu8   O28   S    
