data_mof_unit_pretest_1723.cif
_audit_creation_date              2013-03-05T15:42:51-0500
_audit_creation_method            fapswitch 2.2
_symmetry_space_group_name_H-M    P1
_symmetry_Int_Tables_number       1
_space_group_crystal_system       triclinic
_cell_length_a                    38.051007
_cell_length_b                    38.110785
_cell_length_c                    38.153637
_cell_angle_alpha                 60.076491
_cell_angle_beta                  119.954194
_cell_angle_gamma                 119.813916
_cell_volume                      39214.2476579

loop_
_atom_site_label
_atom_site_type_symbol
_atom_site_description
_atom_site_fract_x
_atom_site_fract_y
_atom_site_fract_z
_atom_type_partial_charge
O1    O     O_R   0.445310 0.938650 0.996390 -0.578625
O2    O     O_R   0.503720 0.010500 0.054630 -0.571166
O3    O     O_R   0.496230 0.061430 0.945380 -0.528734
O4    O     O_R   0.554740 0.989420 0.003600 -0.560648
O5    O     O_R   0.554690 0.061350 0.003610 -0.542883
O6    O     O_R   0.496280 0.989500 0.945370 -0.529956
O7    O     O_R   0.503770 0.938570 0.054620 -0.574999
O8    O     O_R   0.445260 0.010580 0.996400 -0.569685
Cu1   Cu    Cu3+1 0.465520 0.000050 0.965650 1.154705
Cu2   Cu    Cu3+1 0.534480 0.999950 0.034350 1.109476
C1    C     C_R   0.466670 0.015387 0.033370 0.846728
C2    C     C_R   0.533946 0.985869 0.965922 0.908524
C3    C     C_R   0.534219 0.081552 0.965741 0.888838
C4    C     C_R   0.466647 0.918133 0.033409 0.840312
C5    C     C_R   0.324096 0.677195 0.113527 0.462121
C6    C     C_R   0.384620 0.677876 0.176471 0.470490
C7    C     C_R   0.386623 0.738140 0.113503 0.425750
N1    N     N_R   0.343649 0.657533 0.155427 -0.323130
N2    N     N_R   0.405768 0.718255 0.155457 -0.334491
N3    N     N_R   0.345691 0.717503 0.092833 -0.277002
C8    C     C_R   0.262103 0.613172 0.094349 -0.045815
C9    C     C_R   0.217764 0.593918 0.076435 -0.214043
C10   C     C_R   0.189434 0.617144 0.054703 -0.154908
C11   C     C_R   0.205262 0.660490 0.051858 -0.125169
C12   C     C_R   0.249649 0.680077 0.070339 0.307675
C13   C     C_R   0.278249 0.656573 0.091754 -0.060716
H1    H     H_    0.205263 0.560896 0.077826 0.199317
C14   C     C_R   0.400594 0.799933 0.046978 0.308748
C15   C     C_R   0.420541 0.844012 0.027180 -0.131493
C16   C     C_R   0.447804 0.871277 0.052469 -0.125355
C17   C     C_R   0.456618 0.853795 0.096925 -0.151909
C18   C     C_R   0.437514 0.810436 0.116304 -0.124889
C19   C     C_R   0.408799 0.783256 0.091776 0.003960
H2    H     H_    0.477567 0.874071 0.116765 0.179998
H3    H     H_    0.444248 0.798388 0.150630 0.194220
C20   C     C_R   0.382332 0.635704 0.251266 0.258880
C21   C     C_R   0.401687 0.614945 0.294933 -0.116827
C22   C     C_R   0.444587 0.616008 0.310384 -0.215964
C23   C     C_R   0.467937 0.637949 0.281652 -0.139369
C24   C     C_R   0.448195 0.658492 0.237841 0.260172
C25   C     C_R   0.405389 0.657104 0.222580 -0.126509
C26   C     C_R   0.388813 0.037397 0.175474 0.459413
C27   C     C_R   0.325881 0.036627 0.114952 0.498162
C28   C     C_R   0.386070 0.034279 0.114017 0.416401
N4    N     N_R   0.347745 0.037562 0.155648 -0.322462
N5    N     N_R   0.345186 0.034870 0.094379 -0.290780
N6    N     N_R   0.407838 0.035861 0.154458 -0.326553
C29   C     C_R   0.409100 0.059121 0.237345 -0.142354
C30   C     C_R   0.426689 0.051818 0.281924 0.271444
C31   C     C_R   0.446399 0.019978 0.310225 -0.231430
C32   C     C_R   0.448784 0.995245 0.294015 -0.168486
C33   C     C_R   0.430838 0.002118 0.249684 0.304563
C34   C     C_R   0.410733 0.033717 0.221297 -0.099945
C35   C     C_R   0.450633 0.049386 0.101146 -0.171983
C36   C     C_R   0.471513 0.046949 0.081186 -0.044022
C37   C     C_R   0.447024 0.023239 0.052567 -0.170897
C38   C     C_R   0.402432 0.004070 0.043669 -0.220996
C39   C     C_R   0.381791 0.006251 0.063882 0.362258
C40   C     C_R   0.406119 0.029614 0.092686 -0.013634
H4    H     H_    0.383693 0.985146 0.022509 0.202268
H5    H     H_    0.469091 0.067957 0.122631 0.207182
C41   C     C_R   0.251989 0.004467 0.118870 0.239136
C42   C     C_R   0.207515 0.996549 0.098838 0.216862
C43   C     C_R   0.190518 0.016877 0.054205 -0.345835
C44   C     C_R   0.218476 0.045594 0.030062 0.215384
C45   C     C_R   0.263139 0.053963 0.050283 0.244496
C46   C     C_R   0.279935 0.032738 0.094675 -0.204102
C47   C     C_R   0.718695 0.962978 0.846543 -0.038689
C48   C     C_R   0.656159 0.969157 0.781351 -0.100655
C49   C     C_R   0.657085 0.967028 0.846902 0.000723
C50   C     C_R   0.697855 0.965765 0.802992 0.335554
C51   C     C_R   0.635909 0.970595 0.803094 -0.068734
C52   C     C_R   0.698064 0.963210 0.868147 -0.167191
H6    H     H_    0.714512 0.961551 0.901484 0.208461
C53   C     C_R   0.860313 0.943474 0.903742 -0.107397
C54   C     C_R   0.905006 0.949906 0.921557 -0.077110
C55   C     C_R   0.933627 0.978795 0.945032 -0.185134
C56   C     C_R   0.916931 0.001125 0.950542 -0.128991
C57   C     C_R   0.872380 0.994763 0.932538 0.300342
C58   C     C_R   0.844299 0.966313 0.909049 -0.079194
C59   C     C_R   0.605713 0.954164 0.951585 0.310908
C60   C     C_R   0.582756 0.955390 0.970658 -0.161750
C61   C     C_R   0.554220 0.979545 0.945502 -0.233486
C62   C     C_R   0.547357 0.000326 0.900889 0.291734
C63   C     C_R   0.570450 0.999209 0.881950 -0.125297
C64   C     C_R   0.599872 0.976370 0.907526 -0.113884
C65   C     C_R   0.612278 0.964383 0.637156 -0.077261
C66   C     C_R   0.594130 0.970775 0.592526 -0.108170
C67   C     C_R   0.555937 0.982199 0.567083 -0.215161
C68   C     C_R   0.537237 0.987816 0.587455 0.269098
C69   C     C_R   0.555091 0.980785 0.631996 -0.111865
C70   C     C_R   0.592972 0.969903 0.656600 -0.069604
C71   C     C_1   0.799477 0.963824 0.887251 0.144732
C72   C     C_1   0.762531 0.962882 0.868856 0.146788
C73   C     C_1   0.621306 0.972465 0.887728 0.167915
C74   C     C_1   0.638159 0.969680 0.869927 0.120681
C75   C     C_1   0.633418 0.968953 0.737500 0.153676
C76   C     C_1   0.614707 0.968967 0.700932 0.125573
C77   C     C_R   0.657622 0.404709 0.778848 -0.029117
C78   C     C_R   0.720993 0.402810 0.843168 0.017047
C79   C     C_R   0.656282 0.339421 0.841549 -0.105621
C80   C     C_R   0.700030 0.424698 0.801029 -0.194894
H7    H     H_    0.717109 0.457385 0.785108 0.188552
C81   C     C_R   0.699201 0.359989 0.864031 -0.070555
C82   C     C_R   0.635448 0.361787 0.798844 0.327763
C83   C     C_R   0.601356 0.509884 0.638964 0.315134
C84   C     C_R   0.578751 0.529803 0.595897 -0.160145
C85   C     C_R   0.554512 0.506919 0.566471 -0.235458
C86   C     C_R   0.552893 0.464197 0.580636 0.285986
C87   C     C_R   0.575751 0.444463 0.623492 -0.137268
C88   C     C_R   0.599977 0.467450 0.652609 -0.115312
C89   C     C_R   0.560301 0.203420 0.917626 -0.058600
C90   C     C_R   0.540935 0.159338 0.938945 -0.132573
C91   C     C_R   0.554908 0.127718 0.944985 -0.215969
C92   C     C_R   0.588599 0.140497 0.930396 0.331480
C93   C     C_R   0.607256 0.183961 0.909710 -0.136947
C94   C     C_R   0.593716 0.215268 0.903276 -0.034617
H8    H     H_    0.633000 0.193572 0.898605 0.202128
C95   C     C_R   0.864445 0.506876 0.886832 -0.157663
C96   C     C_R   0.906794 0.529528 0.906972 -0.016949
C97   C     C_R   0.933625 0.506593 0.944152 -0.102755
C98   C     C_R   0.916378 0.461540 0.960093 -0.148778
C99   C     C_R   0.874008 0.438884 0.939788 0.004965
C100  C     C_R   0.847745 0.462154 0.902779 0.027941
H9    H     H_    0.936746 0.443646 0.987891 0.208806
H10   H     H_    0.843815 0.524429 0.858793 0.179233
C101  C     C_1   0.621029 0.446416 0.697481 0.172116
C102  C     C_1   0.637986 0.427944 0.734619 0.140288
C103  C     C_1   0.614588 0.259387 0.881023 0.122425
C104  C     C_1   0.633020 0.295878 0.862831 0.147872
C105  C     C_1   0.765706 0.424243 0.863751 0.100317
C106  C     C_1   0.803057 0.441515 0.881384 0.077073
O9    O     O_R   0.503250 0.616760 0.377070 -0.571337
O10   O     O_R   0.444360 0.558610 0.448360 -0.552535
O11   O     O_R   0.553910 0.565980 0.499810 -0.574239
O12   O     O_R   0.496220 0.507360 0.428420 -0.563176
O13   O     O_R   0.495620 0.507600 0.499760 -0.521050
O14   O     O_R   0.554510 0.565750 0.428470 -0.542804
O15   O     O_R   0.444960 0.558380 0.377020 -0.553706
O16   O     O_R   0.502660 0.617000 0.448410 -0.579230
Cu3   Cu    Cu3+1 0.533820 0.596620 0.438450 1.134683
Cu4   Cu    Cu3+1 0.465050 0.527740 0.438380 1.178902
C107  C     C_R   0.464973 0.596413 0.451371 0.894763
C108  C     C_R   0.534064 0.527955 0.425260 0.889826
C109  C     C_R   0.533489 0.528048 0.520119 0.897532
C110  C     C_R   0.465376 0.596103 0.356847 0.886242
O17   O     O_R   0.123550 0.557920 0.054250 -0.576446
O18   O     O_R   0.051380 0.616340 0.995310 -0.520313
O19   O     O_R   0.000830 0.506860 0.002990 -0.589714
O20   O     O_R   0.073110 0.565030 0.945140 -0.522211
O21   O     O_R   0.000880 0.565150 0.944590 -0.544704
O22   O     O_R   0.073050 0.506740 0.003540 -0.586539
O23   O     O_R   0.123600 0.616220 0.995860 -0.560537
O24   O     O_R   0.051330 0.558040 0.053710 -0.590349
Cu5   Cu    Cu3+1 0.062190 0.527150 0.033870 1.077091
Cu6   Cu    Cu3+1 0.062250 0.595920 0.964980 1.159521
C111  C     C_R   0.047726 0.595607 0.032867 0.878987
C112  C     C_R   0.076289 0.527302 0.965898 0.915165
C113  C     C_R   0.980210 0.527597 0.965171 0.854912
C114  C     C_R   0.143562 0.596010 0.034006 0.848256
O25   O     O_R   0.496460 0.989960 0.499360 -0.534364
O26   O     O_R   0.555020 0.061660 0.427790 -0.581694
O27   O     O_R   0.445550 0.011170 0.376700 -0.518207
O28   O     O_R   0.503780 0.938910 0.448180 -0.574999
O29   O     O_R   0.503940 0.010900 0.376650 -0.593876
O30   O     O_R   0.445380 0.939190 0.448220 -0.539953
O31   O     O_R   0.554860 0.989680 0.499320 -0.554521
O32   O     O_R   0.496630 0.061940 0.427830 -0.514032
Cu7   Cu    Cu3+1 0.465760 0.000590 0.438030 1.251369
Cu8   Cu    Cu3+1 0.534650 0.000260 0.437980 1.112174
C115  C     C_R   0.535224 0.082129 0.426180 0.853331
C116  C     C_R   0.466130 0.918823 0.451877 0.888675
C117  C     C_R   0.466158 0.013927 0.356563 0.888599
C118  C     C_R   0.534856 0.987454 0.519900 0.841049
O33   O     O_R   0.000890 0.987010 0.945020 -0.544068
O34   O     O_R   0.072840 0.058540 0.003530 -0.576657
O35   O     O_R   0.123730 0.007180 0.995970 -0.544790
O36   O     O_R   0.051790 0.935610 0.054170 -0.554035
O37   O     O_R   0.123730 0.007160 0.054320 -0.551613
O38   O     O_R   0.051780 0.935630 0.995810 -0.556181
O39   O     O_R   0.000890 0.986990 0.003380 -0.576771
O40   O     O_R   0.072840 0.058560 0.945170 -0.557900
Cu9   Cu    Cu3+1 0.062310 0.997100 0.965250 1.157708
Cu10  Cu    Cu3+1 0.062310 0.997070 0.034090 1.136105
C119  C     C_R   0.075655 0.078845 0.965621 0.879414
C120  C     C_R   0.049230 0.915575 0.033627 0.848095
C121  C     C_R   0.143972 0.010257 0.033738 0.911904
C122  C     C_R   0.980476 0.984207 0.965446 0.882036
C123  C     C_R   0.660175 0.342035 0.412865 -0.000800
C124  C     C_R   0.724125 0.406155 0.415549 -0.062146
C125  C     C_R   0.657322 0.405411 0.410929 -0.000120
C126  C     C_R   0.704022 0.363055 0.416282 -0.017604
C127  C     C_R   0.700943 0.427341 0.413471 -0.053898
C128  C     C_R   0.637326 0.363402 0.410105 -0.127309
H11   H     H_    0.603850 0.346898 0.408080 0.194987
C129  C     C_R   0.622627 0.192517 0.425659 -0.108989
C130  C     C_R   0.602680 0.147850 0.432668 -0.135706
C131  C     C_R   0.557170 0.128799 0.422606 -0.253998
C132  C     C_R   0.532905 0.155113 0.408149 0.250742
C133  C     C_R   0.553298 0.199294 0.402989 0.272253
C134  C     C_R   0.598061 0.217906 0.411793 -0.108387
C135  C     C_R   0.549698 0.458299 0.391918 -0.096434
C136  C     C_R   0.530198 0.480755 0.393574 -0.116956
C137  C     C_R   0.554671 0.507303 0.419664 -0.256760
C138  C     C_R   0.598525 0.511431 0.443372 0.249815
C139  C     C_R   0.617660 0.488676 0.442190 0.291336
C140  C     C_R   0.593351 0.462159 0.416570 -0.121131
C141  C     C_R   0.879548 0.443353 0.447176 -0.043218
C142  C     C_R   0.921996 0.463804 0.446967 -0.160055
C143  C     C_R   0.936574 0.507010 0.422636 -0.121218
C144  C     C_R   0.907476 0.530363 0.396034 -0.129985
C145  C     C_R   0.864278 0.509997 0.395319 0.299692
C146  C     C_R   0.850505 0.466782 0.421304 -0.074917
H12   H     H_    0.944653 0.446342 0.467523 0.195896
C147  C     C_1   0.619496 0.262133 0.411179 0.146103
C148  C     C_1   0.637805 0.298552 0.411695 0.083121
C149  C     C_1   0.614567 0.441333 0.413634 0.158186
C150  C     C_1   0.633314 0.424610 0.411912 0.095320
C151  C     C_1   0.768692 0.428352 0.417304 0.147953
C152  C     C_1   0.805828 0.446103 0.418959 0.185278
C153  C     C_R   0.035988 0.736869 0.120419 0.411374
C154  C     C_R   0.032506 0.674189 0.180956 0.459328
C155  C     C_R   0.034510 0.674579 0.119959 0.477858
N7    N     N_R   0.034664 0.715929 0.160904 -0.343244
N8    N     N_R   0.032427 0.653597 0.160318 -0.319428
N9    N     N_R   0.036315 0.716200 0.100254 -0.288405
C156  C     C_R   0.009545 0.796851 0.095650 -0.088745
C157  C     C_R   0.011716 0.840269 0.073000 -0.083065
C158  C     C_R   0.044066 0.869392 0.053882 -0.184022
C159  C     C_R   0.073770 0.854907 0.057168 -0.119995
C160  C     C_R   0.071679 0.811740 0.080129 0.307769
C161  C     C_R   0.039498 0.782643 0.099152 -0.077833
C162  C     C_R   0.012750 0.659509 0.053728 0.268579
C163  C     C_R   0.016754 0.641699 0.031682 0.251269
C164  C     C_R   0.043030 0.615880 0.054042 -0.181923
C165  C     C_R   0.065489 0.608670 0.097986 -0.197038
C166  C     C_R   0.063762 0.627884 0.119979 -0.044403
C167  C     C_R   0.036709 0.653194 0.097947 -0.110034
H13   H     H_    0.086376 0.589501 0.114890 0.204786
C168  C     C_R   0.058840 0.678011 0.253090 -0.194296
C169  C     C_R   0.065462 0.659661 0.297054 0.291812
C170  C     C_R   0.045914 0.615025 0.314904 -0.299546
C171  C     C_R   0.020367 0.589536 0.287896 0.201340
C172  C     C_R   0.014764 0.608444 0.243663 0.259494
C173  C     C_R   0.034488 0.652991 0.226295 -0.110346
H14   H     H_    0.074827 0.712068 0.240093 0.231056
C174  C     C_R   0.096768 0.404528 0.784776 -0.110774
C175  C     C_R   0.097885 0.340640 0.848843 -0.026166
C176  C     C_R   0.094972 0.403080 0.848697 0.018133
C177  C     C_R   0.098213 0.362196 0.806311 0.326392
C178  C     C_R   0.096419 0.361196 0.869650 -0.190421
H15   H     H_    0.095855 0.344250 0.902269 0.181210
C179  C     C_R   0.095039 0.425263 0.805888 -0.066730
C180  C     C_R   0.115900 0.462500 0.643198 -0.108167
C181  C     C_R   0.112609 0.483691 0.599380 0.249922
C182  C     C_R   0.083712 0.507063 0.570853 -0.246245
C183  C     C_R   0.058231 0.509313 0.586254 0.241092
C184  C     C_R   0.060721 0.487614 0.629732 -0.102887
C185  C     C_R   0.089538 0.464094 0.658178 -0.108480
C186  C     C_R   0.047176 0.458509 0.904012 0.249069
C187  C     C_R   0.043771 0.481769 0.920955 0.246104
C188  C     C_R   0.081083 0.506361 0.945445 -0.282383
C189  C     C_R   0.122095 0.507675 0.953160 -0.169894
C190  C     C_R   0.125480 0.484502 0.935858 0.276093
C191  C     C_R   0.088010 0.460000 0.911381 -0.175268
C192  C     C_R   0.059999 0.185770 0.882881 -0.050700
C193  C     C_R   0.055443 0.141582 0.901996 -0.086582
C194  C     C_R   0.081105 0.125493 0.945094 -0.167831
C195  C     C_R   0.111648 0.153968 0.968673 -0.092864
C196  C     C_R   0.116124 0.198165 0.949321 -0.046958
C197  C     C_R   0.090396 0.213921 0.906563 -0.032443
C198  C     C_1   0.093350 0.443307 0.703262 0.168643
C199  C     C_1   0.095438 0.425836 0.740455 0.166085
C200  C     C_1   0.091457 0.439463 0.890358 0.198954
C201  C     C_1   0.093461 0.422712 0.871881 0.120852
C202  C     C_1   0.096135 0.296272 0.870471 0.119084
C203  C     C_1   0.093888 0.258998 0.887371 0.084496
C204  C     C_R   0.389179 0.677684 0.475368 0.418206
C205  C     C_R   0.326669 0.675622 0.475924 0.422561
C206  C     C_R   0.386667 0.738653 0.474166 0.420013
N10   N     N_R   0.348502 0.656144 0.476239 -0.320770
N11   N     N_R   0.345853 0.716929 0.474912 -0.333889
N12   N     N_R   0.408205 0.718909 0.474480 -0.316867
C207  C     C_R   0.404317 0.614258 0.491589 -0.193857
C208  C     C_R   0.422404 0.593735 0.486396 0.334805
C209  C     C_R   0.445445 0.617267 0.457289 -0.240352
C210  C     C_R   0.450529 0.661535 0.434213 -0.167195
C211  C     C_R   0.433470 0.681899 0.441256 0.316019
C212  C     C_R   0.410144 0.658010 0.469923 -0.058700
H16   H     H_    0.386508 0.596167 0.513742 0.210287
C213  C     C_R   0.449232 0.800306 0.492242 -0.183811
C214  C     C_R   0.469169 0.843658 0.488665 -0.079496
C215  C     C_R   0.445601 0.872373 0.459033 -0.261221
C216  C     C_R   0.401887 0.856561 0.434782 0.242863
C217  C     C_R   0.382229 0.812794 0.439250 0.271886
C218  C     C_R   0.406081 0.784602 0.468445 -0.057706
H17   H     H_    0.466983 0.778096 0.515000 0.210026
C219  C     C_R   0.253215 0.628673 0.444550 0.308004
C220  C     C_R   0.209131 0.609651 0.439344 -0.171692
C221  C     C_R   0.192927 0.615032 0.462156 -0.222857
C222  C     C_R   0.221188 0.639930 0.489617 0.342391
C223  C     C_R   0.264591 0.659713 0.493174 -0.201887
C224  C     C_R   0.280890 0.653883 0.471484 -0.051604
H18   H     H_    0.286188 0.678818 0.514136 0.206586
O41   O     O_R   0.003310 0.564970 0.431960 -0.566576
O42   O     O_R   0.075360 0.506600 0.504280 -0.563020
O43   O     O_R   0.126300 0.615920 0.453270 -0.527236
O44   O     O_R   0.055140 0.557300 0.381780 -0.549186
O45   O     O_R   0.126740 0.557420 0.453690 -0.576922
O46   O     O_R   0.054700 0.615800 0.381360 -0.553994
O47   O     O_R   0.003760 0.506470 0.432380 -0.571811
O48   O     O_R   0.074910 0.565090 0.503860 -0.526895
Cu11  Cu    Cu3+1 0.064760 0.595700 0.442570 1.202198
Cu12  Cu    Cu3+1 0.065290 0.526690 0.443070 1.160963
C225  C     C_R   0.078203 0.527324 0.524369 0.897749
C226  C     C_R   0.051906 0.595067 0.361342 0.933339
C227  C     C_R   0.146688 0.595143 0.456614 0.916520
C228  C     C_R   0.983083 0.527401 0.428338 0.865587
C229  C     C_2   0.512144 0.637453 0.296679 0.952523
O49   O     O_2   0.540603 0.670468 0.286074 -0.492558
O50   O     O_R   0.521200 0.599112 0.323057 -0.729713
H19   H     H_    0.552353 0.602842 0.331372 0.351407
N13   N     N_R   0.436179 0.725790 0.416053 0.146219
O51   O     O_R   0.402863 0.734898 0.383907 -0.243228
O52   O     O_R   0.470239 0.756503 0.428029 -0.265068
C230  C     C_2   0.513743 0.856979 0.518115 0.915551
O53   O     O_2   0.525512 0.885207 0.532050 -0.580055
O54   O     O_R   0.541848 0.835872 0.531367 -0.717472
H20   H     H_    0.571079 0.847333 0.551844 0.361867
N14   N     N_R   0.377925 0.885281 0.403460 0.161454
O55   O     O_R   0.359458 0.896460 0.415379 -0.246034
O56   O     O_R   0.367464 0.893058 0.362831 -0.229134
N15   N     N_R   0.338732 0.797669 0.412481 0.162343
O57   O     O_R   0.308378 0.805986 0.410489 -0.221954
O58   O     O_R   0.329789 0.777597 0.388188 -0.233824
C231  C     C_2   0.179871 0.587374 0.407118 0.966473
O59   O     O_2   0.185983 0.557460 0.409652 -0.484505
O60   O     O_R   0.145461 0.600886 0.373749 -0.740824
H21   H     H_    0.127877 0.583383 0.353768 0.347910
N16   N     N_R   0.206798 0.644508 0.515082 0.150962
O61   O     O_R   0.182122 0.611228 0.536239 -0.303226
O62   O     O_R   0.223581 0.680357 0.522528 -0.268195
N17   N     N_R   0.268989 0.625780 0.419209 0.139917
O63   O     O_R   0.275803 0.590920 0.429996 -0.254370
O64   O     O_R   0.280545 0.659378 0.388001 -0.246459
N18   N     N_R   0.339586 0.636267 0.236393 0.146232
O65   O     O_R   0.307924 0.600530 0.242514 -0.276221
O66   O     O_R   0.332410 0.672585 0.217462 -0.261832
N19   N     N_R   0.470618 0.678186 0.208129 0.150997
O67   O     O_R   0.498195 0.716834 0.204051 -0.260338
O68   O     O_R   0.458947 0.660129 0.180976 -0.277825
N20   N     N_R   0.427905 0.079266 0.298204 0.147114
O69   O     O_R   0.394914 0.071153 0.306617 -0.204210
O70   O     O_R   0.463822 0.108686 0.309940 -0.321667
C232  C     C_2   0.467583 0.960160 0.323381 0.969793
O71   O     O_2   0.494300 0.957746 0.316498 -0.496647
O72   O     O_R   0.454516 0.929771 0.358783 -0.740891
H22   H     H_    0.469312 0.907336 0.376145 0.347276
C233  C     C_2   0.391291 0.094924 0.207451 0.955227
O73   O     O_2   0.368225 0.101137 0.215885 -0.466331
O74   O     O_R   0.400980 0.121588 0.169516 -0.731771
H23   H     H_    0.386790 0.144527 0.151706 0.367608
N21   N     N_R   0.429673 0.974197 0.233949 0.143672
O75   O     O_R   0.394110 0.943867 0.223491 -0.244407
O76   O     O_R   0.462844 0.981699 0.226189 -0.267074
C234  C     C_2   0.518243 0.071126 0.089589 0.915033
O77   O     O_2   0.541295 0.075523 0.124701 -0.534085
O78   O     O_R   0.535776 0.090257 0.057100 -0.750170
H24   H     H_    0.567802 0.106141 0.066740 0.354155
C235  C     C_2   0.175394 0.684575 0.032793 0.933908
O79   O     O_2   0.143833 0.668354 0.043577 -0.596436
O80   O     O_R   0.183450 0.725818 0.002753 -0.655926
H25   H     H_    0.160861 0.738840 0.992274 0.369003
N22   N     N_R   0.336880 0.982178 0.056913 0.140855
O81   O     O_R   0.323485 0.955781 0.089515 -0.261918
O82   O     O_R   0.310815 0.980738 0.018711 -0.268943
N23   N     N_R   0.179577 0.966022 0.123808 0.178097
O83   O     O_R   0.148788 0.933165 0.112788 -0.316801
O84   O     O_R   0.185371 0.970488 0.158159 -0.226526
N24   N     N_R   0.201950 0.068622 0.985438 0.173365
O85   O     O_R   0.209565 0.109572 0.972856 -0.246741
O86   O     O_R   0.185698 0.050393 0.957058 -0.255212
N25   N     N_R   0.268136 0.980528 0.163230 0.176748
O87   O     O_R   0.276709 0.993978 0.192875 -0.236648
O88   O     O_R   0.277609 0.947314 0.173871 -0.222294
N26   N     N_R   0.291416 0.084722 0.025699 0.173327
O89   O     O_R   0.283908 0.082866 0.989342 -0.218788
O90   O     O_R   0.324421 0.115181 0.039273 -0.294679
N27   N     N_R   0.719170 0.965815 0.780657 0.124510
O91   O     O_R   0.721057 0.994981 0.743612 -0.308934
O92   O     O_R   0.737769 0.937429 0.797765 -0.314721
C236  C     C_2   0.593256 0.976806 0.780005 0.901454
O93   O     O_2   0.586751 0.004976 0.745122 -0.560333
O94   O     O_R   0.560849 0.950939 0.798472 -0.727967
H26   H     H_    0.533546 0.958628 0.779866 0.370331
C237  C     C_2   0.921171 0.923916 0.918097 0.932491
O95   O     O_2   0.914864 0.886048 0.940151 -0.520624
O96   O     O_R   0.942357 0.942483 0.888697 -0.681571
H27   H     H_    0.951611 0.921469 0.889114 0.357627
C238  C     C_2   0.945712 0.031611 0.974901 0.969532
O97   O     O_2   0.937414 0.028372 0.003713 -0.501882
O98   O     O_R   0.981921 0.064280 0.964534 -0.731957
H28   H     H_    0.998850 0.083037 0.983248 0.346872
C239  C     C_2   0.290689 0.587558 0.113809 0.921091
O99   O     O_2   0.277312 0.548604 0.130403 -0.525189
O100  O     O_R   0.332389 0.607569 0.112034 -0.709377
H29   H     H_    0.348447 0.586600 0.126282 0.372812
C240  C     C_2   0.830366 0.913228 0.879008 0.939481
O101  O     O_2   0.796235 0.888203 0.885003 -0.520039
O102  O     O_R   0.841228 0.913433 0.848872 -0.698237
H30   H     H_    0.818304 0.891478 0.834210 0.371489
N28   N     N_R   0.855744 0.018761 0.936529 0.141719
O103  O     O_R   0.870956 0.060474 0.923571 -0.274591
O104  O     O_R   0.824305 0.999038 0.951681 -0.293268
C241  C     C_2   0.588487 0.930690 0.016889 0.976684
O105  O     O_2   0.557071 0.907494 0.028552 -0.557490
O106  O     O_R   0.629830 0.933680 0.046990 -0.668586
H31   H     H_    0.629544 0.915267 0.077342 0.359803
N29   N     N_R   0.518219 0.024355 0.874873 0.147045
O107  O     O_R   0.533023 0.066044 0.860757 -0.274394
O108  O     O_R   0.477286 0.004648 0.859902 -0.257032
N30   N     N_R   0.633718 0.928797 0.976599 0.152774
O109  O     O_R   0.673353 0.945922 0.977510 -0.282090
O110  O     O_R   0.619084 0.888042 0.996915 -0.272933
C242  C     C_2   0.563427 0.021806 0.835120 0.952566
O111  O     O_2   0.527027 0.019512 0.809454 -0.495162
O112  O     O_R   0.598501 0.045708 0.820397 -0.732114
H32   H     H_    0.589574 0.059219 0.788002 0.365348
C243  C     C_2   0.615365 0.964232 0.573643 0.969138
O113  O     O_2   0.636063 0.995164 0.551017 -0.501846
O114  O     O_R   0.613585 0.922860 0.583783 -0.718747
H33   H     H_    0.629819 0.922481 0.569561 0.346889
N31   N     N_R   0.500102 0.001286 0.562945 0.155378
O115  O     O_R   0.503774 0.040673 0.537274 -0.260064
O116  O     O_R   0.463523 0.975364 0.569000 -0.276386
C244  C     C_2   0.652009 0.952231 0.663855 0.937599
O117  O     O_2   0.683145 0.971757 0.651783 -0.509757
O118  O     O_R   0.653703 0.918534 0.702981 -0.706742
H34   H     H_    0.682276 0.913326 0.718204 0.382731
C245  C     C_2   0.534119 0.985622 0.652637 0.965091
O119  O     O_2   0.526826 0.957517 0.685301 -0.543375
O120  O     O_R   0.522426 0.022063 0.634555 -0.659014
H35   H     H_    0.508379 0.021524 0.651540 0.371789
N32   N     N_R   0.265169 0.722753 0.070802 0.134429
O121  O     O_R   0.276165 0.728719 0.106135 -0.271546
O122  O     O_R   0.272979 0.755615 0.037480 -0.228481
C246  C     C_2   0.721216 0.337098 0.909235 0.923106
O123  O     O_2   0.718567 0.300048 0.919897 -0.552256
O124  O     O_R   0.745003 0.358052 0.939590 -0.727585
H36   H     H_    0.758532 0.339281 0.969091 0.360160
N33   N     N_R   0.592026 0.340943 0.775843 0.127133
O125  O     O_R   0.581077 0.303060 0.775018 -0.302982
O126  O     O_R   0.563407 0.360021 0.755071 -0.301682
C247  C     C_2   0.580924 0.574674 0.582024 0.969358
O127  O     O_2   0.548218 0.584413 0.560392 -0.557315
O128  O     O_R   0.620453 0.605750 0.593963 -0.671632
H37   H     H_    0.617794 0.634990 0.582716 0.358374
N34   N     N_R   0.530644 0.441833 0.550472 0.136911
O129  O     O_R   0.552025 0.439465 0.534166 -0.308288
O130  O     O_R   0.489717 0.420554 0.542417 -0.244383
N35   N     N_R   0.624410 0.532167 0.669445 0.153737
O131  O     O_R   0.664517 0.535662 0.692392 -0.298189
O132  O     O_R   0.604874 0.547598 0.675494 -0.276189
C248  C     C_2   0.574195 0.399643 0.637668 0.977792
O133  O     O_2   0.540347 0.372466 0.625810 -0.468409
O134  O     O_R   0.611489 0.388528 0.664551 -0.731768
H38   H     H_    0.606227 0.357155 0.672143 0.369268
C249  C     C_2   0.508263 0.146739 0.957423 0.937645
O135  O     O_2   0.515385 0.165687 0.979592 -0.532254
O136  O     O_R   0.469388 0.113631 0.949323 -0.712899
H39   H     H_    0.450165 0.108009 0.964001 0.348874
N36   N     N_R   0.604008 0.109966 0.935490 0.121358
O137  O     O_R   0.616809 0.116750 0.906083 -0.281063
O138  O     O_R   0.613011 0.080260 0.972289 -0.331643
C250  C     C_2   0.544557 0.236775 0.908855 0.929060
O139  O     O_2   0.570110 0.270892 0.914514 -0.549622
O140  O     O_R   0.500398 0.229160 0.893871 -0.696800
H40   H     H_    0.493703 0.254153 0.889119 0.370827
C251  C     C_2   0.415457 0.860481 0.981046 0.934647
O141  O     O_2   0.447181 0.881957 0.969782 -0.553959
O142  O     O_R   0.374586 0.851537 0.950506 -0.663118
H41   H     H_    0.375470 0.864542 0.920290 0.364373
C252  C     C_2   0.920741 0.576973 0.888734 0.901670
O143  O     O_2   0.910979 0.594640 0.849819 -0.525902
O144  O     O_R   0.943286 0.601518 0.915690 -0.694673
H42   H     H_    0.950431 0.633428 0.899172 0.385412
C253  C     C_2   0.858902 0.391159 0.957871 0.899276
O145  O     O_2   0.829016 0.369684 0.935482 -0.550781
O146  O     O_R   0.879740 0.370577 0.000654 -0.731785
H43   H     H_    0.866826 0.338165 0.009222 0.365109
C254  C     C_2   0.729244 0.339664 0.422088 0.878350
O147  O     O_2   0.729074 0.304872 0.450395 -0.558928
O148  O     O_R   0.753799 0.357777 0.395855 -0.733599
H44   H     H_    0.770068 0.339072 0.403492 0.353169
C255  C     C_2   0.722555 0.471713 0.415307 0.932450
O149  O     O_2   0.704537 0.498585 0.390809 -0.525036
O150  O     O_R   0.763338 0.482554 0.445433 -0.696175
H45   H     H_    0.774448 0.513455 0.443813 0.388508
C256  C     C_2   0.630284 0.121412 0.451823 0.959353
O151  O     O_2   0.630951 0.092895 0.486577 -0.525281
O152  O     O_R   0.655892 0.129638 0.430375 -0.715106
H46   H     H_    0.673406 0.109671 0.446742 0.361543
N37   N     N_R   0.487138 0.137552 0.397688 0.172988
O153  O     O_R   0.470691 0.116555 0.428269 -0.227815
O154  O     O_R   0.462596 0.150079 0.358179 -0.201217
C257  C     C_2   0.669554 0.212985 0.433089 0.960677
O155  O     O_2   0.695189 0.200054 0.468031 -0.518082
O156  O     O_R   0.684138 0.246892 0.399667 -0.710415
H47   H     H_    0.716543 0.257294 0.407911 0.361494
N38   N     N_R   0.528272 0.225156 0.389241 0.154929
O157  O     O_R   0.500816 0.212149 0.407542 -0.225712
O158  O     O_R   0.533005 0.261958 0.358509 -0.292278
C258  C     C_2   0.483994 0.475785 0.368439 0.967982
O159  O     O_2   0.472705 0.507456 0.345221 -0.534247
O160  O     O_R   0.453471 0.434769 0.371343 -0.701587
H48   H     H_    0.423198 0.435525 0.352720 0.362373
N39   N     N_R   0.623163 0.536222 0.471548 0.154316
O161  O     O_R   0.632776 0.516951 0.512831 -0.269346
O162  O     O_R   0.641210 0.577466 0.456467 -0.262248
C259  C     C_2   0.524968 0.432109 0.363075 0.937708
O163  O     O_2   0.526270 0.396041 0.376381 -0.538064
O164  O     O_R   0.500374 0.448884 0.320629 -0.711904
H49   H     H_    0.485052 0.428079 0.304288 0.368560
N40   N     N_R   0.662167 0.492837 0.467091 0.159652
O165  O     O_R   0.691168 0.530567 0.465704 -0.228631
O166  O     O_R   0.673793 0.458902 0.491842 -0.295044
C260  C     C_2   0.921824 0.575713 0.368533 0.958354
O167  O     O_2   0.911253 0.602569 0.366111 -0.484775
O168  O     O_R   0.947379 0.587647 0.345307 -0.735487
H50   H     H_    0.955274 0.619350 0.327965 0.352130
C261  C     C_2   0.866911 0.397591 0.474982 0.902135
O169  O     O_2   0.887101 0.374928 0.485699 -0.540457
O170  O     O_R   0.832739 0.380398 0.489778 -0.739776
H51   H     H_    0.827535 0.349037 0.508244 0.370042
N41   N     N_R   0.833846 0.532614 0.366755 0.145220
O171  O     O_R   0.827193 0.548743 0.325707 -0.267412
O172  O     O_R   0.812040 0.536335 0.381550 -0.289738
N42   N     N_R   0.374824 0.771592 0.022281 0.138161
O173  O     O_R   0.388225 0.742472 0.029324 -0.272871
O174  O     O_R   0.335574 0.770576 0.997690 -0.223881
C262  C     C_2   0.979609 0.854908 0.068829 0.914396
O175  O     O_2   0.962447 0.877942 0.034166 -0.573118
O176  O     O_R   0.969017 0.842259 0.104581 -0.700905
H52   H     H_    0.946838 0.854194 0.097651 0.363076
C263  C     C_2   0.109358 0.885175 0.039466 0.943789
O177  O     O_2   0.146564 0.892136 0.063749 -0.485182
O178  O     O_R   0.100426 0.904177 0.995101 -0.694582
H53   H     H_    0.127367 0.923946 0.987064 0.362679
C264  C     C_2   0.973814 0.765583 0.112773 0.944611
O179  O     O_2   0.937717 0.753434 0.088214 -0.511222
O180  O     O_R   0.981403 0.750826 0.156767 -0.688418
H54   H     H_    0.954545 0.729645 0.164543 0.362580
N43   N     N_R   0.102890 0.797544 0.084709 0.147291
O181  O     O_R   0.125766 0.778743 0.122647 -0.253595
O182  O     O_R   0.108443 0.803299 0.050974 -0.265080
N44   N     N_R   0.991763 0.647639 0.987273 0.151070
O183  O     O_R   0.010058 0.675184 0.958311 -0.277763
O184  O     O_R   0.950029 0.632604 0.975679 -0.259838
N45   N     N_R   0.983719 0.683507 0.031088 0.161571
O185  O     O_R   0.985918 0.714931 0.995232 -0.226480
O186  O     O_R   0.954081 0.673099 0.045573 -0.272768
C265  C     C_2   0.092908 0.622998 0.165088 0.935857
O187  O     O_2   0.098572 0.588535 0.189233 -0.524490
O188  O     O_R   0.115256 0.658115 0.179566 -0.706519
H55   H     H_    0.134169 0.650674 0.210800 0.366820
N46   N     N_R   0.093926 0.686667 0.323225 0.161168
O189  O     O_R   0.125300 0.675755 0.357310 -0.293851
O190  O     O_R   0.093270 0.725330 0.309119 -0.263466
N47   N     N_R   0.997602 0.544925 0.304676 0.170832
O191  O     O_R   0.010873 0.515959 0.311167 -0.248537
O192  O     O_R   0.966860 0.533414 0.318180 -0.290960
N48   N     N_R   0.986700 0.582841 0.216150 0.159780
O193  O     O_R   0.954514 0.593521 0.183216 -0.276383
O194  O     O_R   0.993976 0.549621 0.223068 -0.239346
N49   N     N_R   0.099237 0.340853 0.784780 0.142843
O195  O     O_R   0.128327 0.322878 0.802694 -0.271263
O196  O     O_R   0.070301 0.338176 0.747813 -0.287331
C266  C     C_2   0.092746 0.469601 0.783261 0.879841
O197  O     O_2   0.115180 0.497026 0.760964 -0.551326
O198  O     O_R   0.064836 0.479939 0.787431 -0.722701
H56   H     H_    0.066230 0.510973 0.770614 0.367838
N50   N     N_R   0.138351 0.481049 0.583750 0.159382
O199  O     O_R   0.163308 0.515793 0.563976 -0.291700
O200  O     O_R   0.136599 0.443847 0.588933 -0.271070
N51   N     N_R   0.026943 0.530622 0.556789 0.145737
O201  O     O_R   0.036495 0.570510 0.551166 -0.234677
O202  O     O_R   0.990568 0.511493 0.532585 -0.355604
C267  C     C_2   0.148055 0.439912 0.673544 0.946961
O203  O     O_2   0.184573 0.456809 0.672218 -0.489706
O204  O     O_R   0.136611 0.399375 0.703600 -0.690175
H57   H     H_    0.161289 0.387488 0.722487 0.377088
C268  C     C_2   0.032452 0.489013 0.645116 0.939800
O205  O     O_2   0.027222 0.522735 0.633895 -0.481216
O206  O     O_R   0.011776 0.451702 0.672452 -0.738687
H58   H     H_    0.993829 0.456857 0.680946 0.363245
N52   N     N_R   0.002096 0.479230 0.914410 0.135911
O207  O     O_R   0.991881 0.513854 0.895364 -0.332051
O208  O     O_R   0.973438 0.442116 0.925205 -0.293474
C269  C     C_2   0.377516 0.594989 0.324653 0.960274
O209  O     O_2   0.371929 0.617699 0.334092 -0.505598
O210  O     O_R   0.359914 0.550364 0.340521 -0.692454
H59   H     H_    0.343959 0.540631 0.360268 0.357445
C270  C     C_2   0.161361 0.532498 0.980037 0.929706
O211  O     O_2   0.189527 0.516826 0.007614 -0.500879
O212  O     O_R   0.166227 0.573912 0.973610 -0.749448
H60   H     H_    0.194637 0.587819 0.993208 0.337901
N53   N     N_R   0.009070 0.434653 0.877927 0.174716
O213  O     O_R   0.002886 0.395190 0.885124 -0.298373
O214  O     O_R   0.980354 0.452307 0.846874 -0.229972
N54   N     N_R   0.167015 0.487295 0.941555 0.160661
O215  O     O_R   0.195663 0.524547 0.931102 -0.264591
O216  O     O_R   0.175702 0.452643 0.955527 -0.293901
C271  C     C_2   0.023971 0.112521 0.876297 0.934911
O217  O     O_2   0.996576 0.080213 0.889760 -0.547520
O218  O     O_R   0.025498 0.122613 0.836359 -0.701048
H61   H     H_    0.002388 0.100619 0.821808 0.365358
C272  C     C_2   0.141322 0.137944 0.012305 0.896283
O219  O     O_2   0.144550 0.143813 0.042637 -0.502827
O220  O     O_R   0.164986 0.115363 0.018644 -0.734859
H62   H     H_    0.183648 0.105587 0.049669 0.348641
C273  C     C_2   0.031712 0.202455 0.838466 0.904018
O221  O     O_2   0.992778 0.184532 0.828298 -0.532150
O222  O     O_R   0.049677 0.238653 0.808405 -0.671156
H63   H     H_    0.027196 0.246844 0.779442 0.378505
C274  C     C_2   0.148753 0.228587 0.973095 0.878040
O223  O     O_2   0.178864 0.256656 0.960787 -0.524927
O224  O     O_R   0.144250 0.225907 0.008611 -0.683133
H64   H     H_    0.168283 0.248632 0.021814 0.365728
N55   N     N_R   0.418169 0.549463 0.511966 0.148589
O225  O     O_R   0.451499 0.536872 0.532116 -0.301593
O226  O     O_R   0.382878 0.523253 0.520713 -0.270101
C275  C     C_2   0.471129 0.686418 0.400554 0.959745
O227  O     O_2   0.459834 0.672143 0.372742 -0.586175
O228  O     O_R   0.503237 0.726254 0.400547 -0.674246
H65   H     H_    0.514623 0.740040 0.376013 0.356373

loop_
_geom_bond_atom_site_label_1
_geom_bond_atom_site_label_2
_geom_bond_distance
_ccdc_geom_bond_type
C8    C13   1.417734 A    
N49   O196  1.301171 A    
C176  C179  1.416629 A    
O72   H22   1.013909 S    
C242  O111  1.222909 D    
C213  C214  1.398532 A    
C39   N22   1.436458 S    
O112  H32   1.013841 S    
C124  C151  1.453465 S    
C91   C92   1.418341 A    
C155  N9    1.356258 A    
O46   C226  1.287022 A    
N15   O57   1.300996 A    
C244  O117  1.223040 D    
C217  N15   1.437147 S    
C207  C208  1.396683 A    
C237  O96   1.397415 S    
C274  O223  1.222697 D    
N55   O226  1.301369 A    
C243  O113  1.222956 D    
O15   Cu4   1.949808 S    
C83   C84   1.417558 A    
O17   C114  1.285784 A    
C78   C81   1.414884 A    
C85   C86   1.415059 A    
N48   O194  1.300527 A    
C200  C201  1.208897 T    
N43   O181  1.301357 A    
C87   C88   1.413023 A    
C130  C256  1.484481 S    
O10   C107  1.286684 A    
C108  C137  1.492770 S    
C163  N44   1.431346 S    
C123  C128  1.398965 A    
O26   C115  1.292284 A    
C261  O169  1.223562 D    
C198  C199  1.208607 T    
C256  O152  1.397851 S    
C135  C259  1.490177 S    
C176  C201  1.448929 S    
C230  O53   1.222487 D    
O4    C2    1.289459 A    
O17   Cu5   1.950723 S    
O5    C3    1.284410 A    
C59   C64   1.409260 A    
O3    C3    1.285221 A    
C35   C40   1.403040 A    
C79   C104  1.452373 S    
C47   C52   1.398610 A    
C264  O179  1.222391 D    
N35   O132  1.301239 A    
C207  H16   1.083944 S    
C132  C133  1.413693 A    
C271  O218  1.398086 S    
C95   C100  1.397669 A    
C8    C9    1.403484 A    
C137  C138  1.414603 A    
C254  O148  1.398049 S    
C67   C118  1.510726 S    
C166  C265  1.485328 S    
Cu1   Cu2   2.624388 S    
O78   H24   1.013792 S    
C28   N5    1.355015 A    
C116  C215  1.474537 S    
N37   O154  1.300703 A    
O16   Cu3   1.952851 S    
C5    N3    1.356872 A    
O39   C122  1.287583 A    
C140  C149  1.452697 S    
N14   O55   1.300855 A    
C32   C33   1.406484 A    
O42   Cu12  1.949674 S    
O34   C119  1.287576 A    
N52   O207  1.300644 A    
C236  O94   1.398114 S    
N39   O162  1.300877 A    
C139  C140  1.409064 A    
C111  C164  1.478435 S    
C87   C248  1.491140 S    
C257  O155  1.222937 D    
C222  C223  1.398035 A    
O40   C119  1.286102 A    
N26   O90   1.301376 A    
Cu9   Cu10  2.625924 S    
C246  O124  1.398398 S    
C21   C22   1.418109 A    
C123  C148  1.451190 S    
C270  O212  1.397885 S    
C169  N46   1.437448 S    
C156  C157  1.414358 A    
O45   Cu12  1.951263 S    
N20   O69   1.300753 A    
N53   O214  1.301263 A    
C265  O187  1.223184 D    
C253  O146  1.398931 S    
N51   O201  1.300794 A    
N36   O137  1.301538 A    
O23   Cu6   1.950167 S    
O24   Cu5   1.953160 S    
O31   C118  1.292018 A    
C238  O98   1.397159 S    
O32   Cu7   1.953375 S    
C240  O102  1.398333 S    
C14   C19   1.415421 A    
N54   O216  1.301219 A    
C9    H1    1.084548 S    
C31   C117  1.477274 S    
C41   N25   1.432779 S    
C262  O175  1.222889 D    
C219  C220  1.407341 A    
C84   C85   1.419415 A    
N25   O87   1.300823 A    
C23   C24   1.412987 A    
C221  C222  1.416538 A    
O33   Cu9   1.951078 S    
C174  C177  1.414730 A    
O34   Cu10  1.953491 S    
C204  C212  1.468756 S    
C65   C244  1.491745 S    
O204  H57   1.013808 S    
C157  C262  1.491370 S    
C141  C261  1.492631 S    
O106  H31   1.013824 S    
N16   O62   1.301393 A    
C129  C130  1.417429 A    
O14   Cu3   1.953506 S    
C59   N30   1.438489 S    
C77   C102  1.448447 S    
C35   H5    1.084356 S    
C153  N7    1.353978 A    
C272  O219  1.222063 D    
C132  N37   1.432966 S    
C149  C150  1.208323 T    
C125  C128  1.399345 A    
C264  O180  1.397410 S    
C273  O221  1.223125 D    
C18   C19   1.401144 A    
C144  C260  1.486828 S    
O25   C118  1.295566 A    
C89   C94   1.413527 A    
C180  C185  1.415737 A    
C93   H8    1.084523 S    
C213  C218  1.398140 A    
C54   C237  1.481312 S    
C32   C232  1.486926 S    
O94   H26   1.013843 S    
O36   C120  1.285947 A    
C95   H10   1.085234 S    
C197  C203  1.456087 S    
C145  C146  1.414759 A    
C107  C209  1.472608 S    
C259  O164  1.398441 S    
O50   H19   1.013864 S    
C233  O73   1.222553 D    
C9    C10   1.398973 A    
C180  C267  1.488911 S    
C58   C71   1.452891 S    
C86   C87   1.413896 A    
C81   C246  1.490026 S    
C1    C37   1.474014 S    
N24   O85   1.300688 A    
C156  C264  1.481397 S    
C5    N1    1.357249 A    
C266  O198  1.398470 S    
O13   Cu4   1.949536 S    
C229  O50   1.397843 S    
O30   C116  1.279349 A    
C141  C146  1.416112 A    
C12   N32   1.434412 S    
C186  N53   1.438877 S    
N41   O171  1.301169 A    
O28   Cu8   1.953371 S    
N53   O213  1.301260 A    
O43   C227  1.286986 A    
O16   C107  1.280371 A    
C53   C240  1.490970 S    
O6    Cu1   1.952692 S    
C75   C76   1.208794 T    
C68   C69   1.412464 A    
C170  C226  1.481299 S    
C99   C100  1.414829 A    
C63   C64   1.412038 A    
C172  C173  1.411343 A    
C172  N48   1.435533 S    
C215  C216  1.417275 A    
N28   O103  1.301269 A    
C261  O170  1.398405 S    
C267  O204  1.397705 S    
C192  C197  1.412406 A    
C6    N2    1.356639 A    
C26   C34   1.479017 S    
C187  C188  1.411722 A    
C241  O105  1.223306 D    
C154  C173  1.478777 S    
C28   C40   1.474861 S    
O224  H64   1.013812 S    
O47   C228  1.288127 A    
C165  C166  1.400222 A    
C100  C106  1.449461 S    
C183  C184  1.413123 A    
C15   C251  1.485964 S    
N22   O81   1.301486 A    
C22   C110  1.482699 S    
N38   O158  1.301322 A    
O40   Cu9   1.953662 S    
C206  C218  1.467398 S    
O32   C115  1.293446 A    
C61   C62   1.417572 A    
C190  C191  1.411905 A    
C112  C188  1.479022 S    
C251  O141  1.223285 D    
C10   C11   1.414394 A    
C241  O106  1.398179 S    
C247  O127  1.222987 D    
C174  C199  1.451529 S    
C94   C103  1.449123 S    
C162  C163  1.411312 A    
O25   Cu7   1.949177 S    
O188  H55   1.013819 S    
C205  N10   1.354856 A    
C45   C46   1.413378 A    
O33   C122  1.288850 A    
O152  H46   1.013787 S    
C182  C183  1.412321 A    
C60   C241  1.486061 S    
C138  N39   1.432970 S    
O2    C1    1.283954 A    
C158  C159  1.416970 A    
C275  O228  1.397516 S    
C92   N36   1.440323 S    
C142  C143  1.400614 A    
C83   C88   1.411375 A    
C29   C34   1.416103 A    
C223  H18   1.083883 S    
N34   O129  1.300606 A    
C145  N41   1.437594 S    
C99   C253  1.489656 S    
C239  O99   1.223362 D    
C233  O74   1.398686 S    
C64   C73   1.451177 S    
C69   C70   1.409161 A    
O136  H39   1.013974 S    
C248  O133  1.222867 D    
C154  N8    1.359295 A    
N31   O116  1.301049 A    
C12   C13   1.416118 A    
C47   C72   1.446346 S    
N32   O121  1.300792 A    
N13   O52   1.300872 A    
O21   C113  1.288291 A    
C48   C51   1.417918 A    
C49   C74   1.446856 S    
C259  O163  1.223116 D    
O144  H42   1.013757 S    
O3    Cu1   1.953226 S    
N18   O66   1.301319 A    
C252  O143  1.223279 D    
C164  C165  1.399973 A    
C83   N35   1.438389 S    
O142  H41   1.013858 S    
C17   H2    1.083538 S    
C6    N1    1.358444 A    
C240  O101  1.223096 D    
C154  N7    1.356923 A    
C27   N4    1.356485 A    
O102  H30   1.013838 S    
N50   O199  1.301046 A    
O38   C120  1.281128 A    
C250  O139  1.223054 D    
C195  C272  1.487780 S    
C232  O72   1.396532 S    
N40   O166  1.301293 A    
O206  H58   1.013858 S    
C204  N12   1.354283 A    
N17   O64   1.300964 A    
N30   O109  1.301226 A    
C51   C236  1.487411 S    
C222  N16   1.438617 S    
O160  H48   1.013819 S    
O27   C117  1.286638 A    
Cu5   Cu6   2.627692 S    
C33   C34   1.412776 A    
C192  C273  1.489486 S    
C103  C104  1.208682 T    
C190  N54   1.438470 S    
C35   C36   1.402828 A    
O41   C228  1.287199 A    
C57   N28   1.439216 S    
O100  H29   1.013824 S    
O54   H20   1.013848 S    
N31   O115  1.301278 A    
C168  C173  1.400312 A    
C193  C194  1.421035 A    
C155  N8    1.359134 A    
C47   C50   1.411713 A    
C188  C189  1.415205 A    
C267  O203  1.223112 D    
O48   C225  1.287385 A    
C135  C140  1.414324 A    
C98   H9    1.083366 S    
C184  C185  1.414925 A    
O210  H59   1.013822 S    
O14   C108  1.289023 A    
N55   O225  1.301189 A    
C186  C187  1.410627 A    
C38   C39   1.397228 A    
C153  C161  1.477750 S    
C168  C169  1.396083 A    
C42   N23   1.437727 S    
C219  C224  1.409382 A    
N41   O172  1.300672 A    
C130  C131  1.427360 A    
N23   O84   1.300764 A    
O28   C116  1.289116 A    
O164  H49   1.013824 S    
N49   O195  1.301157 A    
O11   Cu3   1.949808 S    
C202  C203  1.208908 T    
C248  O134  1.398568 S    
C30   C31   1.410622 A    
C253  O145  1.222553 D    
C160  N43   1.439085 S    
C55   C122  1.495052 S    
C230  O54   1.398576 S    
O1    C4    1.284419 A    
C274  O224  1.397255 S    
O120  H35   1.013849 S    
O148  H44   1.013781 S    
C208  N55   1.438376 S    
C6    C25   1.480007 S    
C63   C242  1.490739 S    
C66   C243  1.481556 S    
O156  H47   1.013689 S    
C48   C75   1.452101 S    
O7    Cu2   1.953223 S    
C36   C37   1.417100 A    
O15   C110  1.282712 A    
C271  O217  1.222281 D    
N43   O182  1.301227 A    
C52   H6    1.085212 S    
O178  H53   1.013880 S    
C206  N12   1.353622 A    
C231  O59   1.222442 D    
C178  H15   1.085060 S    
C162  C167  1.418622 A    
C55   C56   1.421784 A    
C96   C97   1.422198 A    
C175  C177  1.410099 A    
C96   C252  1.481433 S    
N42   O173  1.300837 A    
N19   O67   1.300881 A    
N14   O56   1.300735 A    
O180  H54   1.013732 S    
O176  H52   1.013853 S    
O42   C225  1.288079 A    
O118  H34   1.013787 S    
O13   C109  1.287089 A    
C14   C15   1.416811 A    
N29   O108  1.300998 A    
N52   O208  1.301146 A    
O37   Cu10  1.951085 S    
C115  C131  1.508075 S    
C36   C234  1.486529 S    
O6    C2    1.286422 A    
C216  C217  1.404926 A    
C171  N47   1.433256 S    
N47   O192  1.300916 A    
O37   C121  1.282548 A    
C257  O156  1.397667 S    
C171  C172  1.411745 A    
C7    N3    1.356625 A    
O41   Cu11  1.951302 S    
C245  O119  1.222882 D    
C82   N33   1.439955 S    
O168  H50   1.013804 S    
C234  O77   1.223330 D    
C157  C158  1.417601 A    
O12   Cu4   1.953185 S    
C124  C127  1.418047 A    
N46   O189  1.301180 A    
C89   C250  1.489793 S    
O36   Cu10  1.953737 S    
N29   O107  1.300354 A    
N44   O184  1.300925 A    
C141  C142  1.404000 A    
O11   C109  1.288696 A    
C204  N10   1.353285 A    
N20   O70   1.300582 A    
C50   N27   1.439130 S    
C265  O188  1.398652 S    
N21   O75   1.300814 A    
C11   C12   1.410402 A    
O43   Cu11  1.951599 S    
C15   C16   1.419764 A    
C23   C229  1.488721 S    
C3    C91   1.482435 S    
N39   O161  1.300684 A    
C128  H11   1.085179 S    
O98   H28   1.013808 S    
O170  H51   1.013887 S    
C268  O205  1.222642 D    
C168  H14   1.083799 S    
C242  O112  1.398480 S    
C20   C25   1.410501 A    
C7    C19   1.479649 S    
C179  C266  1.491360 S    
N54   O215  1.301252 A    
C125  C150  1.448257 S    
N33   O125  1.301212 A    
C146  C152  1.451002 S    
C244  O118  1.398363 S    
C235  O79   1.222774 D    
N15   O58   1.301376 A    
C30   N20   1.433059 S    
C258  O160  1.398243 S    
O22   C112  1.284415 A    
C205  C224  1.469616 S    
N51   O202  1.300722 A    
C42   C43   1.414394 A    
C246  O123  1.222999 D    
C184  C268  1.491053 S    
C237  O95   1.222329 D    
O24   C111  1.285069 A    
C231  O60   1.397204 S    
C135  C136  1.420980 A    
C97   C113  1.495317 S    
C217  C218  1.408873 A    
C238  O97   1.223027 D    
C38   H4    1.083996 S    
C39   C40   1.413563 A    
N35   O131  1.301228 A    
C153  N9    1.355188 A    
N13   O51   1.300779 A    
C2    C61   1.494178 S    
C133  N38   1.439482 S    
N48   O193  1.301220 A    
C45   N26   1.438161 S    
C220  C221  1.421068 A    
C125  C127  1.415491 A    
C11   C235  1.486227 S    
C41   C42   1.403459 A    
O10   Cu4   1.953510 S    
C144  C145  1.418719 A    
O26   Cu8   1.953790 S    
O22   Cu5   1.951947 S    
C24   N19   1.434108 S    
N37   O153  1.301196 A    
C49   C52   1.398321 A    
C251  O142  1.397155 S    
C31   C32   1.414894 A    
O1    Cu1   1.953396 S    
O21   Cu6   1.951030 S    
C62   C63   1.413531 A    
C97   C98   1.408875 A    
O44   Cu12  1.950080 S    
C211  N13   1.433884 S    
C86   N34   1.433813 S    
C252  O144  1.396269 S    
C207  C212  1.397515 A    
C79   C81   1.419954 A    
C269  O210  1.397339 S    
C37   C38   1.402701 A    
C101  C102  1.209584 T    
C181  N50   1.437548 S    
C175  C178  1.398335 A    
C151  C152  1.208835 T    
N44   O183  1.300710 A    
N24   O86   1.300821 A    
C85   C109  1.490949 S    
C216  N14   1.434122 S    
O39   Cu10  1.950436 S    
O29   Cu8   1.949180 S    
C260  O168  1.398672 S    
C127  C255  1.489502 S    
C124  C126  1.417808 A    
O20   C112  1.284686 A    
C21   C269  1.481734 S    
C206  N11   1.356568 A    
C236  O93   1.222648 D    
C139  N40   1.439576 S    
C235  O80   1.397338 S    
C95   C96   1.405127 A    
C165  H13   1.084740 S    
O80   H25   1.013877 S    
O9    Cu3   1.949536 S    
C142  H12   1.084352 S    
O35   C121  1.286029 A    
C43   C44   1.411788 A    
C180  C181  1.416817 A    
N28   O104  1.301253 A    
N26   O89   1.301103 A    
C68   N31   1.434383 S    
O12   C108  1.288129 A    
O35   Cu9   1.950478 S    
C69   C245  1.486499 S    
C143  C228  1.483187 S    
Cu11  Cu12  2.630607 S    
C22   C23   1.417614 A    
O23   C114  1.283672 A    
C159  C263  1.484374 S    
C44   C45   1.407963 A    
C147  C148  1.210075 T    
C159  C160  1.407768 A    
O27   Cu7   1.949209 S    
N22   O82   1.301235 A    
C229  O49   1.222413 D    
C186  C191  1.410113 A    
C77   C80   1.399136 A    
C194  C195  1.418954 A    
C65   C66   1.419478 A    
C60   C61   1.421037 A    
O218  H61   1.013839 S    
N27   O92   1.301043 A    
C196  C197  1.411630 A    
C247  O128  1.398283 S    
O9    C110  1.288192 A    
O18   Cu6   1.952523 S    
C67   C68   1.423409 A    
C26   N4    1.355995 A    
C92   C93   1.398780 A    
N33   O126  1.301219 A    
O46   Cu11  1.949705 S    
O8    Cu1   1.952533 S    
N17   O63   1.300826 A    
C71   C72   1.208256 T    
C56   C238  1.486171 S    
Cu7   Cu8   2.628565 S    
O222  H63   1.013756 S    
C53   C54   1.418287 A    
C189  C270  1.487021 S    
C59   C60   1.415663 A    
N18   O65   1.301150 A    
C78   C105  1.449990 S    
C70   C76   1.455465 S    
C193  C271  1.487998 S    
C120  C158  1.477972 S    
C138  C139  1.408510 A    
O48   Cu11  1.950081 S    
C272  O220  1.398282 S    
C208  C209  1.415279 A    
C62   N29   1.434214 S    
N34   O130  1.300855 A    
C41   C46   1.411558 A    
C214  C215  1.417418 A    
C269  O209  1.222431 D    
N36   O138  1.299940 A    
C175  C202  1.447515 S    
C273  O222  1.397332 S    
C209  C210  1.422123 A    
C250  O140  1.398487 S    
O29   C117  1.282148 A    
C256  O151  1.223155 D    
C169  C170  1.415176 A    
C195  C196  1.418052 A    
C93   C94   1.393543 A    
C126  C254  1.485318 S    
N32   O122  1.300672 A    
O150  H45   1.013843 S    
C205  N11   1.355534 A    
C20   N18   1.438384 S    
C48   C50   1.415971 A    
C134  C147  1.455816 S    
O44   C226  1.286632 A    
C263  O178  1.397295 S    
C90   C91   1.423275 A    
O45   C227  1.282885 A    
O7    C4    1.284607 A    
C232  O71   1.222559 D    
C90   C249  1.488973 S    
C133  C134  1.407893 A    
C84   C247  1.487085 S    
O220  H62   1.013864 S    
C131  C132  1.422239 A    
C196  C274  1.483807 S    
O146  H43   1.013959 S    
C28   N6    1.355493 A    
O18   C111  1.287279 A    
C183  N51   1.433426 S    
C66   C67   1.429200 A    
C156  C161  1.414020 A    
N45   O186  1.301345 A    
N19   O68   1.300793 A    
O20   Cu6   1.953163 S    
N30   O110  1.301227 A    
N21   O76   1.300927 A    
C80   H7    1.085075 S    
C4    C16   1.477723 S    
O114  H33   1.013753 S    
C89   C90   1.425205 A    
C214  C230  1.485510 S    
C170  C171  1.417662 A    
O31   Cu8   1.949556 S    
C243  O114  1.397008 S    
C79   C82   1.416425 A    
C77   C82   1.412475 A    
N46   O190  1.301313 A    
C210  C275  1.487948 S    
C176  C178  1.400127 A    
O198  H56   1.013823 S    
C18   H3    1.083327 S    
C54   C55   1.420497 A    
O140  H40   1.013840 S    
C268  O206  1.398599 S    
C162  N45   1.437513 S    
C129  C257  1.485697 S    
C270  O211  1.223061 D    
C56   C57   1.413847 A    
O128  H37   1.013844 S    
C5    C13   1.480537 S    
C220  C231  1.485490 S    
C136  C258  1.487563 S    
C123  C126  1.414336 A    
N25   O88   1.300721 A    
N38   O157  1.301114 A    
C182  C225  1.486290 S    
N45   O185  1.301119 A    
C16   C17   1.399990 A    
C254  O147  1.222419 D    
C10   C114  1.476176 S    
C78   C80   1.399974 A    
C263  O177  1.222679 D    
C177  N49   1.438078 S    
C255  O150  1.398224 S    
C249  O135  1.223174 D    
C14   N42   1.433726 S    
O19   C113  1.292505 A    
N23   O83   1.300728 A    
O19   Cu5   1.950397 S    
C174  C179  1.420301 A    
C27   C46   1.477534 S    
C24   C25   1.411693 A    
C249  O136  1.397265 S    
O124  H36   1.013877 S    
C210  C211  1.406821 A    
C88   C101  1.454358 S    
O4    Cu2   1.952530 S    
C181  C182  1.413697 A    
O2    Cu2   1.952695 S    
C160  C161  1.410741 A    
C65   C70   1.409928 A    
C275  O227  1.222563 D    
C53   C58   1.412916 A    
C44   N24   1.432883 S    
C187  N52   1.436135 S    
C223  C224  1.397104 A    
C29   C30   1.412264 A    
C17   C18   1.388890 A    
C33   N21   1.434758 S    
C155  C167  1.482389 S    
N50   O200  1.301194 A    
O38   Cu9   1.953491 S    
O212  H60   1.013480 S    
C221  C227  1.475503 S    
O74   H23   1.013819 S    
N42   O174  1.300682 A    
O134  H38   1.013852 S    
C211  C212  1.409072 A    
C239  O100  1.398719 S    
C260  O167  1.222997 D    
C189  C190  1.418419 A    
C129  C134  1.408839 A    
O5    Cu2   1.953398 S    
C262  O176  1.398305 S    
Cu3   Cu4   2.628304 S    
N47   O191  1.300607 A    
N27   O91   1.301158 A    
O8    C1    1.284036 A    
C7    N2    1.357031 A    
C245  O120  1.398076 S    
C266  O197  1.223013 D    
C26   N6    1.356119 A    
C143  C144  1.415838 A    
C213  H17   1.084527 S    
C27   N5    1.355487 A    
C234  O78   1.397760 S    
C43   C121  1.476964 S    
C192  C193  1.417234 A    
C255  O149  1.223023 D    
C57   C58   1.407707 A    
C8    C239  1.487810 S    
C191  C200  1.451418 S    
N40   O165  1.301057 A    
O30   Cu7   1.953753 S    
C20   C21   1.408216 A    
O60   H21   1.013885 S    
C163  C164  1.408781 A    
O47   Cu12  1.951334 S    
C73   C74   1.207592 T    
C98   C99   1.407407 A    
N16   O61   1.301215 A    
O96   H27   1.013782 S    
C49   C51   1.413773 A    
C219  N17   1.434857 S    
C136  C137  1.422668 A    
O228  H65   1.013857 S    
C166  C167  1.418089 A    
C29   C233  1.488899 S    
C258  O159  1.222671 D    
C185  C198  1.453602 S    
C105  C106  1.209358 T    
C119  C194  1.491107 S    
