data_mof_unit_pretest_1765.cif
_audit_creation_date              2012-10-26T18:55:36-0400
_audit_creation_method            fapswitch 2.2
_symmetry_space_group_name_H-M    P1
_symmetry_Int_Tables_number       1
_space_group_crystal_system       triclinic
_cell_length_a                    12.746426
_cell_length_b                    13.900644
_cell_length_c                    27.530936
_cell_angle_alpha                 90.097236
_cell_angle_beta                  93.113504
_cell_angle_gamma                 97.93463
_cell_volume                      4823.9871593

loop_
_atom_site_label
_atom_site_type_symbol
_atom_type_description
_atom_site_fract_x
_atom_site_fract_y
_atom_site_fract_z
_atom_type_partial_charge
C1    C     C_R   0.483566 0.315805 0.499312 0.560462
C2    C     C_R   0.456127 0.417090 0.875489 0.047375
C3    C     C_R   0.501189 0.509007 0.353904 -0.019058
C4    C     C_R   0.499218 0.487936 0.645874 0.012260
C5    C     C_R   0.485224 0.391882 0.976811 0.039473
C6    C     C_R   0.641833 0.518505 0.028942 0.039639
C7    C     C_R   0.647023 0.509624 0.977766 -0.000038
C8    C     C_R   0.501679 0.378823 0.027632 0.000257
C9    C     C_R   0.560547 0.455235 0.951697 0.017873
C10   C     C_R   0.570520 0.450953 0.053838 0.016939
C11   C     C_R   0.391337 0.350695 0.951195 -0.098731
C12   C     C_R   0.516432 0.684195 0.500513 0.552898
C13   C     C_R   0.699552 0.596904 0.055489 -0.099641
C14   C     C_R   0.377573 0.361924 0.901259 -0.080713
C15   C     C_R   0.695846 0.602786 0.105766 -0.082944
C16   C     C_R   0.500620 0.502681 0.407174 0.561184
C17   C     C_R   0.499475 0.496887 0.592768 0.569751
C18   C     C_R   0.451073 0.298567 0.053338 0.073599
C19   C     C_R   0.734090 0.552770 0.951765 0.073315
C20   C     C_1   0.525865 0.787528 0.500584 0.018202
C21   C     C_1   0.474182 0.212473 0.499148 0.024437
C22   C     C_2   0.543667 0.978408 0.500684 -0.097307
C23   C     C_R   0.567734 0.456182 0.104979 -0.054458
C24   C     C_2   0.456552 0.021610 0.499006 -0.104628
C25   C     C_1   0.465674 0.125421 0.499065 -0.016568
C26   C     C_1   0.534487 0.874588 0.500635 -0.018586
C27   C     C_2   0.028185 0.473268 0.486302 -0.145929
C28   C     C_2   0.971805 0.526752 0.513686 -0.143218
C29   C     C_1   0.854636 0.519251 0.509811 0.178583
C30   C     C_1   0.145359 0.480757 0.490182 0.161398
C31   C     C_R   0.507917 0.393668 0.181947 0.482687
C32   C     C_R   0.607240 0.533036 0.823995 0.498760
C33   C     C_R   0.622950 0.539705 0.181263 0.386369
C34   C     C_R   0.548306 0.464933 0.900620 -0.045902
C35   C     C_R   0.443937 0.425947 0.824998 0.464436
C36   C     C_R   0.554827 0.590694 0.279176 0.056012
C37   C     C_R   0.551291 0.410701 0.721302 0.039372
C38   C     C_R   0.563102 0.585814 0.330693 0.094649
C39   C     C_R   0.546117 0.413837 0.669984 0.020201
C40   C     C_R   0.426419 0.445982 0.325966 -0.188237
C41   C     C_R   0.454661 0.556075 0.672521 -0.188446
C42   C     C_R   0.425320 0.447953 0.275203 0.038246
C43   C     C_R   0.459954 0.555257 0.723412 0.034567
C44   C     C_R   0.509266 0.506135 0.252454 0.146283
C45   C     C_R   0.505922 0.383412 0.130675 0.016540
C46   C     C_R   0.510036 0.483046 0.748091 0.238162
C47   C     C_2   0.327510 0.401366 0.248227 0.313133
C48   C     C_2   0.412689 0.631776 0.748971 0.292465
C49   C     C_2   0.598409 0.330591 0.746437 0.292419
C50   C     C_2   0.561145 0.686152 0.253974 0.332815
C51   C     C_R   0.626680 0.523314 0.874938 0.018076
C52   C     C_R   0.448163 0.302938 0.104547 0.142407
C53   C     C_R   0.722487 0.564671 0.900796 0.134344
C54   C     C_R   0.630299 0.532792 0.130822 0.034175
Cu1   Cu    Cu3+1 0.395330 0.493960 0.496930 1.021665
Cu2   Cu    Cu3+1 0.604670 0.506040 0.503070 1.065951
H1    H     H_    0.367183 0.396861 0.343811 0.125435
H2    H     H_    0.622153 0.020687 0.502111 0.155149
H3    H     H_    0.275494 0.344088 0.265109 0.124798
H4    H     H_    0.377352 0.686235 0.727929 0.110259
H5    H     H_    0.595215 0.260483 0.728793 0.148316
H6    H     H_    0.529689 0.688776 0.216625 0.124591
H7    H     H_    0.418052 0.612028 0.653327 0.110134
H8    H     H_    0.014105 0.578197 0.540064 0.138785
H9    H     H_    0.985881 0.421824 0.459925 0.141193
H10   H     H_    0.304450 0.327757 0.882983 0.183754
H11   H     H_    0.741648 0.664375 0.124727 0.182369
H12   H     H_    0.325683 0.312842 0.969873 0.162158
H13   H     H_    0.744406 0.656710 0.037378 0.159695
H14   H     H_    0.378072 0.979322 0.497587 0.145918
I1    I     I_    0.341378 0.193648 0.138837 -0.110511
I2    I     I_    0.855172 0.643153 0.865861 -0.095179
I3    I     I_    0.609417 0.306627 0.628377 -0.323762
I4    I     I_    0.662021 0.695141 0.373680 -0.180882
I5    I     I_    0.410303 0.159432 0.017658 -0.227785
I6    I     I_    0.891508 0.568029 0.986434 -0.229297
N1    N     N_R   0.544058 0.481911 0.204043 -0.380592
N2    N     N_R   0.519373 0.482223 0.800446 -0.345109
N3    N     N_1   0.238040 0.484880 0.492320 -0.179764
N4    N     N_1   0.761960 0.515120 0.507680 -0.167076
O1    O     O_R   0.399110 0.356330 0.497030 -0.491820
O2    O     O_2   0.674498 0.591769 0.797550 -0.424974
O3    O     O_2   0.357708 0.378337 0.800385 -0.469143
O4    O     O_2   0.698508 0.599046 0.207016 -0.468542
O5    O     O_2   0.301461 0.429485 0.207926 -0.465966
O6    O     O_2   0.411741 0.635511 0.793230 -0.455097
O7    O     O_2   0.642583 0.341581 0.786902 -0.468622
O8    O     O_2   0.598552 0.762513 0.273935 -0.429812
O9    O     O_R   0.600890 0.643670 0.502970 -0.480800
O10   O     O_R   0.575890 0.366530 0.502210 -0.476865
O11   O     O_R   0.424110 0.633470 0.497790 -0.494669
O12   O     O_R   0.411620 0.494910 0.427670 -0.496575
O13   O     O_R   0.588380 0.505090 0.572330 -0.467712
O14   O     O_R   0.588400 0.505120 0.432860 -0.473459
O15   O     O_R   0.411600 0.494880 0.567140 -0.492777
O16   O     O_2   0.483458 0.315008 0.209655 -0.442738

loop_
_geom_bond_atom_site_label_1
_geom_bond_atom_site_label_2
_ccdc_geom_bond_type
C2    C35   A    
Cu1   Cu2   S    
C1    C21   S    
C18   I5    S    
C23   C45   A    
C49   O7    D    
C12   O11   A    
C33   N1    A    
C18   C52   A    
Cu2   O14   S    
C34   C51   A    
C1    O10   A    
C20   C26   T    
C47   O5    D    
C28   C29   S    
C5    C11   A    
C30   N3    T    
C11   C14   A    
C4    C41   A    
C1    O1    A    
C31   O16   S    
C37   C49   S    
C32   O2    S    
Cu1   O11   S    
C3    C38   A    
C31   N1    A    
C17   O15   A    
Cu1   O1    S    
C43   C48   S    
C50   O8    D    
C2    C34   A    
C40   C42   A    
C27   C30   S    
C41   C43   A    
C42   C44   A    
C33   O4    S    
C48   H4    S    
Cu2   O13   S    
C49   H5    S    
C24   H14   S    
C15   C54   A    
C12   O9    A    
C24   C25   S    
Cu1   O15   S    
C46   N2    S    
C35   O3    S    
C45   C52   A    
C47   H3    S    
C8    C18   A    
C51   C53   A    
C32   C51   A    
C6    C10   A    
Cu1   O12   S    
C27   H9    S    
Cu1   N3    S    
C4    C39   A    
C15   H11   S    
C12   C20   S    
C14   H10   S    
C4    C17   S    
C28   H8    S    
Cu2   O9    S    
C3    C40   A    
C16   O12   A    
C7    C19   A    
C13   C15   A    
C22   C26   S    
C9    C34   A    
C50   H6    S    
C48   O6    D    
C36   C44   A    
C17   O13   A    
C41   H7    S    
C36   C50   S    
C11   H12   S    
C23   C54   A    
C38   I4    S    
C33   C54   A    
C7    C9    A    
C21   C25   T    
C19   I6    S    
C40   H1    S    
C5    C9    A    
C22   H2    S    
C5    C8    A    
C6    C7    A    
C10   C23   A    
C44   N1    S    
C35   N2    A    
C16   O14   A    
Cu2   N4    S    
C36   C38   A    
C37   C39   A    
C52   I1    S    
C6    C13   A    
C19   C53   A    
C29   N4    T    
C13   H13   S    
Cu2   O10   S    
C22   C24   D    
C42   C47   S    
C39   I3    S    
C2    C14   A    
C43   C46   A    
C32   N2    A    
C8    C10   A    
C31   C45   A    
C27   C28   D    
C37   C46   A    
C53   I2    S    
C3    C16   S    
