data_mof_unit_pretest_1292.cif
_audit_creation_date              2012-12-10T17:02:30-0500
_audit_creation_method            fapswitch 2.2
_symmetry_space_group_name_H-M    P1
_symmetry_Int_Tables_number       1
_space_group_crystal_system       triclinic
_cell_length_a                    10.857124
_cell_length_b                    10.993094
_cell_length_c                    9.704124
_cell_angle_alpha                 108.556912
_cell_angle_beta                  97.034184
_cell_angle_gamma                 89.896722
_cell_volume                      1088.8867736

loop_
_atom_site_label
_atom_site_type_symbol
_atom_type_description
_atom_site_fract_x
_atom_site_fract_y
_atom_site_fract_z
_atom_type_partial_charge
C1    C     C_R   0.493918 0.255591 0.445231 0.837958
C2    C     C_R   0.501174 0.745113 0.554694 0.848413
C3    C     C_2   0.493189 0.119971 0.426476 -0.382240
C4    C     C_2   0.489074 0.882040 0.574048 -0.403681
C5    C     C_2   0.429666 0.068585 0.506843 0.117875
C6    C     C_2   0.429993 0.928560 0.470386 0.095842
C7    C     C_2   0.503554 0.515982 0.081192 -0.031323
C8    C     C_2   0.489064 0.491519 0.920542 0.017020
C9    C     C_R   0.263054 0.484134 0.500808 0.776267
C10   C     C_R   0.738291 0.507776 0.497166 0.802434
C11   C     C_R   0.131606 0.513455 0.772416 -0.201983
C12   C     C_R   0.858004 0.411712 0.216452 -0.172089
C13   C     C_R   0.073258 0.567998 0.898737 0.023872
C14   C     C_R   0.904132 0.326178 0.094459 0.018596
C15   C     C_R   0.969622 0.641692 0.889419 -0.195957
C16   C     C_R   0.020391 0.275456 0.114235 -0.159094
C17   C     C_R   0.912831 0.641242 0.753212 -0.146133
C18   C     C_R   0.093833 0.318491 0.249485 -0.127728
C19   C     C_R   0.953605 0.559142 0.624198 0.083980
C20   C     C_R   0.050329 0.409309 0.370784 0.064455
C21   C     C_R   0.074620 0.514720 0.633962 0.069682
C22   C     C_R   0.925331 0.445047 0.359180 0.058646
C23   C     C_R   0.874113 0.513787 0.489753 -0.206382
C24   C     C_R   0.128775 0.461763 0.504049 -0.230489
Cu1   Cu    Cu3+1 0.521920 0.521810 0.644910 0.954919
Cu2   Cu    Cu3+1 0.478080 0.478190 0.355090 0.951065
H1    H     H_    0.056649 0.205421 0.024248 0.168099
H2    H     H_    0.928086 0.693830 0.986111 0.168342
H3    H     H_    0.214376 0.460341 0.780554 0.164825
H4    H     H_    0.773133 0.456635 0.194804 0.190991
H5    H     H_    0.831582 0.697909 0.749483 0.150598
H6    H     H_    0.184226 0.278028 0.259428 0.146839
H7    H     H_    0.528859 0.948901 0.679175 0.154352
H8    H     H_    0.543772 0.059283 0.341779 0.133810
H9    H     H_    0.421533 0.419178 0.850103 0.139096
H10   H     H_    0.564647 0.594526 0.152982 0.133110
H11   H     H_    0.618461 0.623434 0.931521 0.190237
H12   H     H_    0.396573 0.364680 0.066555 0.228156
N1    N     N_2   0.445130 0.445420 0.137360 -0.253168
N2    N     N_2   0.554870 0.554580 0.862640 -0.277910
O1    O     O_R   0.511700 0.332340 0.577400 -0.564782
O2    O     O_R   0.488300 0.667660 0.422600 -0.589103
O3    O     O_R   0.474680 0.295500 0.332650 -0.583251
O4    O     O_R   0.525320 0.704500 0.667350 -0.577622
O5    O     O_R   0.338170 0.518410 0.622370 -0.590716
O6    O     O_R   0.661830 0.481590 0.377630 -0.592827
O7    O     O_R   0.301150 0.481570 0.377630 -0.553889
O8    O     O_R   0.698850 0.518430 0.622370 -0.554881
C25   C     C_2   0.117957 0.547320 0.039342 0.827577
O9    O     O_2   0.198377 0.470917 0.044349 -0.632639
O10   O     O_R   0.066142 0.612941 0.166236 -0.792975
H13   H     H_    0.110318 0.597591 0.256941 0.345342
C26   C     C_2   0.831180 0.290106 0.946477 0.829747
O11   O     O_2   0.726316 0.328424 0.930369 -0.612666
O12   O     O_R   0.882068 0.212012 0.824582 -0.791943
H14   H     H_    0.823655 0.194965 0.729988 0.337561
C27   C     C_3   0.361670 0.846119 0.321509 -0.327038
C28   C     C_3   0.298204 0.924970 0.227416 -0.399278
C29   C     C_3   0.215682 0.842997 0.092459 -0.822634
H15   H     H_    0.265408 0.757895 0.032625 0.260103
H16   H     H_    0.129573 0.814454 0.126218 0.279833
H17   H     H_    0.189132 0.899979 0.017984 0.238737
H18   H     H_    0.240443 0.999747 0.292927 0.227330
H19   H     H_    0.369636 0.972037 0.186986 0.227002
H20   H     H_    0.429074 0.784911 0.256119 0.205997
H21   H     H_    0.289913 0.783837 0.341404 0.216721
C30   C     C_3   0.350001 0.147474 0.619989 -0.364284
C31   C     C_3   0.249254 0.067540 0.654417 -0.408050
C32   C     C_3   0.164828 0.153336 0.755293 -0.791060
H22   H     H_    0.219827 0.211615 0.859703 0.256501
H23   H     H_    0.115450 0.218215 0.701613 0.273269
H24   H     H_    0.095080 0.091946 0.779535 0.266764
H25   H     H_    0.191622 0.010487 0.551207 0.233395
H26   H     H_    0.292727 0.000716 0.709409 0.230600
H27   H     H_    0.411846 0.197103 0.722628 0.209148
H28   H     H_    0.302083 0.220716 0.578231 0.182709

loop_
_geom_bond_atom_site_label_1
_geom_bond_atom_site_label_2
_ccdc_geom_bond_type
C10   O6    A    
C32   H24   S    
C19   C23   A    
O12   H14   S    
C9    C24   S    
C9    O5    A    
C19   C21   A    
O10   H13   S    
Cu1   O5    S    
C10   C23   S    
C7    H10   S    
C2    C4    S    
C11   C21   A    
Cu1   O8    S    
C27   H21   S    
C5    C30   S    
C27   H20   S    
C31   H25   S    
C16   H1    S    
C13   C15   A    
Cu1   Cu2   S    
C3    C5    D    
C7    C8    S    
C16   C18   A    
C26   O11   D    
C10   O8    A    
C11   C13   A    
C6    C27   S    
C11   H3    S    
C27   C28   S    
C5    C6    S    
Cu2   O7    S    
C2    O2    A    
C13   C25   S    
Cu1   O4    S    
C1    O1    A    
C17   C19   A    
C20   C22   A    
Cu2   O3    S    
C9    O7    A    
H11   N2    S    
C18   C20   A    
C26   O12   S    
Cu1   N2    S    
C28   H19   S    
C32   H22   S    
C17   H5    S    
C14   C16   A    
Cu2   N1    S    
C29   H16   S    
C18   H6    S    
Cu2   O6    S    
C15   H2    S    
C30   C31   S    
C12   C22   A    
C29   H15   S    
C14   C26   S    
C30   H27   S    
C2    O4    A    
Cu2   O2    S    
C4    C6    D    
C25   O9    D    
C21   C24   A    
Cu1   O1    S    
C28   H18   S    
C32   H23   S    
C20   C24   A    
C4    H7    S    
C29   H17   S    
C7    N1    D    
C30   H28   S    
C8    N2    D    
C3    H8    S    
C12   H4    S    
C28   C29   S    
C15   C17   A    
C31   H26   S    
C1    O3    A    
C22   C23   A    
C25   O10   S    
C12   C14   A    
C31   C32   S    
C1    C3    S    
C8    H9    S    
H12   N1    S    
