data_mof_unit_pretest_697.cif
_audit_creation_date              2012-12-11T16:14:44-0500
_audit_creation_method            fapswitch 2.2
_symmetry_space_group_name_H-M    P1
_symmetry_Int_Tables_number       1
_space_group_crystal_system       triclinic
_cell_length_a                    8.554133
_cell_length_b                    15.028113
_cell_length_c                    17.178395
_cell_angle_alpha                 95.935929
_cell_angle_beta                  96.801002
_cell_angle_gamma                 98.237155
_cell_volume                      2153.81999249

loop_
_atom_site_label
_atom_site_type_symbol
_atom_type_description
_atom_site_fract_x
_atom_site_fract_y
_atom_site_fract_z
_atom_type_partial_charge
Ba1   Ba    Ba6+2 0.159600 0.544390 0.464780 1.748552
Ba2   Ba    Ba6+2 0.650580 0.455600 0.535150 1.807718
C1    C     C_3   0.394567 0.784574 0.180594 -0.302230
C2    C     C_R   0.888881 0.794311 0.522267 -0.024783
C3    C     C_R   0.070454 0.233535 0.519037 -0.175698
C4    C     C_3   0.948772 0.793616 0.303651 0.350396
C5    C     C_R   0.166545 0.172297 0.544951 0.091564
C6    C     C_R   0.108014 0.079120 0.533418 -0.048461
C7    C     C_R   0.950551 0.044906 0.495536 0.048910
C8    C     C_R   0.857047 0.108739 0.465102 0.019370
C9    C     C_R   0.881500 0.950146 0.488919 0.012642
C10   C     C_R   0.719038 0.921755 0.453960 -0.036141
C11   C     C_R   0.635008 0.985560 0.421133 -0.069752
C12   C     C_3   0.419669 0.752027 0.261364 0.306860
C13   C     C_R   0.703315 0.076087 0.425109 -0.009254
C14   C     C_R   0.965214 0.883350 0.520007 -0.115929
C15   C     C_R   0.730768 0.768744 0.487984 -0.198635
C16   C     C_3   0.982150 0.888498 0.279846 -0.330587
C17   C     C_R   0.918559 0.204021 0.477433 0.080647
C18   C     C_R   0.598000 0.538899 0.283748 -0.296471
C19   C     C_R   0.442666 0.493331 0.256940 0.068806
C20   C     C_R   0.378335 0.492844 0.177927 -0.067943
C21   C     C_R   0.469166 0.536187 0.125755 -0.027330
C22   C     C_R   0.627292 0.577565 0.152155 -0.118957
C23   C     C_3   0.635488 0.746616 0.720366 0.630748
C24   C     C_R   0.692860 0.578183 0.231032 -0.008639
C25   C     C_R   0.401288 0.546565 0.839071 -0.095837
C26   C     C_R   0.353224 0.530907 0.757326 -0.053586
C27   C     C_R   0.090917 0.462738 0.779812 0.099909
C28   C     C_3   0.698511 0.313182 0.286460 0.738936
C29   C     C_R   0.135989 0.482910 0.861847 -0.029964
C30   C     C_R   0.293348 0.522667 0.891648 0.047776
C31   C     C_1   0.350208 0.530055 0.975052 0.116436
C32   C     C_1   0.402977 0.533813 0.044011 0.036350
C33   C     C_R   0.197881 0.489441 0.728104 -0.154320
C34   C     C_3   0.662532 0.754452 0.810541 -0.283955
C35   C     C_3   0.808856 0.381882 0.251733 -0.273446
C36   C     C_3   0.062016 0.778509 0.721706 0.465032
C37   C     C_3   0.212686 0.842430 0.713004 0.349100
C38   C     C_3   0.222614 0.270420 0.359575 0.331849
C39   C     C_3   0.194902 0.168043 0.337317 -0.276183
C40   C     C_3   0.920714 0.217380 0.774474 0.880082
C41   C     C_3   0.922312 0.168935 0.849866 -0.126564
C42   C     C_3   0.491542 0.259421 0.737635 0.390179
C43   C     C_3   0.519398 0.229240 0.821282 0.335872
C44   C     C_R   0.644363 0.830206 0.453592 0.027233
H1    H     H_    0.742893 0.409814 0.202925 0.078179
H2    H     H_    0.547162 0.744435 0.274526 -0.061122
H3    H     H_    0.427522 0.735056 0.135244 0.080562
H4    H     H_    0.731364 0.717537 0.693588 -0.026109
H5    H     H_    0.692891 0.690734 0.830357 0.096983
H6    H     H_    0.759665 0.810514 0.834530 0.192081
H7    H     H_    0.554804 0.770138 0.835503 0.143308
H8    H     H_    0.967140 0.939328 0.328946 0.057741
H9    H     H_    0.806085 0.131456 0.857685 0.096700
H10   H     H_    0.966607 0.218332 0.903213 0.153232
H11   H     H_    0.414113 0.311324 0.736618 0.050653
H12   H     H_    0.862582 0.436632 0.299422 0.076231
H13   H     H_    0.599735 0.294929 0.721272 0.016269
H14   H     H_    0.602349 0.181112 0.820580 0.046615
H15   H     H_    0.033439 0.790020 0.357145 0.077586
H16   H     H_    0.411922 0.189882 0.837254 0.157768
H17   H     H_    0.673189 0.699939 0.488936 0.057396
H18   H     H_    0.088781 0.899106 0.543920 0.098948
H19   H     H_    0.118447 0.305028 0.527602 0.050281
H20   H     H_    0.188151 0.035523 0.555323 0.104929
H21   H     H_    0.630715 0.120502 0.398017 0.123368
H22   H     H_    0.522168 0.577235 0.861957 0.103566
H23   H     H_    0.958548 0.812625 0.712788 0.048684
H24   H     H_    0.700032 0.607663 0.111264 0.105739
H25   H     H_    0.053319 0.461041 0.901796 0.125954
H26   H     H_    0.258727 0.457715 0.156922 0.109943
H27   H     H_    0.649196 0.538487 0.344384 0.064023
H28   H     H_    0.160261 0.476722 0.665012 0.079831
H29   H     H_    0.106228 0.902572 0.266008 0.152430
H30   H     H_    0.897869 0.894785 0.227059 0.135927
H31   H     H_    0.619494 0.347414 0.322130 -0.088523
H32   H     H_    0.342822 0.685233 0.258856 0.071792
H33   H     H_    0.905158 0.349982 0.227478 0.154319
H34   H     H_    0.208795 0.858868 0.651949 0.009778
H35   H     H_    0.292406 0.694727 0.804611 0.292003
H36   H     H_    0.356386 0.998840 0.893272 0.364169
H37   H     H_    0.106072 0.293209 0.363404 -0.005785
H38   H     H_    0.267452 0.791498 0.165046 0.159503
H39   H     H_    0.751324 0.936639 0.617355 0.400207
H40   H     H_    0.470237 0.851221 0.181028 0.136634
H41   H     H_    0.710119 0.232715 0.628752 0.345275
H42   H     H_    0.290876 0.350714 0.831786 0.343921
H43   H     H_    0.002120 0.117063 0.849498 0.174580
H44   H     H_    0.519135 0.352876 0.016345 0.377222
H45   H     H_    0.316696 0.808929 0.726810 0.101677
H46   H     H_    0.513431 0.966758 0.392816 0.107799
H47   H     H_    0.824474 0.782070 0.317755 -0.083599
H48   H     H_    0.622813 0.167714 0.097380 0.385826
H49   H     H_    0.299674 0.287125 0.417579 0.002071
H50   H     H_    0.140397 0.150337 0.274637 0.173544
H51   H     H_    0.113477 0.134346 0.374459 -0.023443
H52   H     H_    0.309597 0.141721 0.346247 0.138932
O1    O     O_2   0.167760 0.722240 0.545330 -0.426987
O2    O     O_2   0.778238 0.451400 0.768387 -0.406451
O3    O     O_3   0.843896 0.294898 0.786219 -0.656108
O4    O     O_3   0.895630 0.608830 0.542770 -0.456770
O5    O     O_3   0.421020 0.453750 0.407560 -0.498693
O6    O     O_2   0.649640 0.543870 0.686710 -0.446911
O7    O     O_3   0.487482 0.695352 0.691638 -0.654059
O8    O     O_2   0.483060 0.172830 0.533048 -0.482445
O9    O     O_3   0.432727 0.182735 0.681092 -0.509915
O10   O     O_3   0.383340 0.666720 0.405900 -0.488149
O11   O     O_2   0.317476 0.826936 0.462758 -0.446278
O12   O     O_3   0.296208 0.310795 0.300772 -0.567562
O13   O     O_3   0.041403 0.698096 0.669209 -0.640288
O14   O     O_3   0.377084 0.815313 0.317951 -0.613283
O15   O     O_2   0.160650 0.456070 0.313260 -0.486603
O16   O     O_3   0.956180 0.620960 0.366010 -0.499031
O17   O     O_2   0.014527 0.561527 0.223792 -0.474337
O18   O     O_2   0.035590 0.818369 0.877493 -0.216761
O19   O     O_2   0.965115 0.658982 0.820777 -0.323339
O20   O     O_3   0.261893 0.729207 0.850874 -0.484226
O21   O     O_2   0.338932 0.016521 0.738026 -0.192093
O22   O     O_2   0.080515 0.975351 0.784639 -0.227508
O23   O     O_3   0.970497 0.730174 0.241293 -0.585410
O24   O     O_3   0.334722 0.936654 0.864805 -0.428765
O25   O     O_2   0.490776 0.850042 0.624509 -0.314214
O26   O     O_2   0.596749 0.920435 0.759271 -0.199371
O27   O     O_3   0.790954 0.900686 0.658174 -0.524660
O28   O     O_2   0.927110 0.071325 0.670700 -0.216416
O29   O     O_2   0.668377 0.087666 0.709268 -0.235141
O30   O     O_3   0.785145 0.192799 0.613655 -0.520252
O31   O     O_2   0.182566 0.155429 0.749526 -0.247422
O32   O     O_2   0.140217 0.293010 0.692106 -0.454139
O33   O     O_3   0.214977 0.302471 0.847306 -0.571929
O34   O     O_2   0.642530 0.277700 0.454650 -0.471890
O35   O     O_2   0.754748 0.309919 0.937810 -0.285127
O36   O     O_2   0.590534 0.409382 0.874644 -0.334238
O37   O     O_3   0.468058 0.307122 0.971528 -0.459967
O38   O     O_2   0.493243 0.158220 0.238897 -0.299760
O39   O     O_2   0.459621 0.286901 0.164768 -0.314150
O40   O     O_3   0.697015 0.201003 0.143172 -0.492132
O41   O     O_3   0.914670 0.391160 0.457170 -0.508683
O42   O     O_3   0.426950 0.333280 0.594040 -0.509676
O43   O     O_3   0.793026 0.261978 0.329625 -0.662438
O44   O     O_3   0.389270 0.546240 0.592370 -0.433310
O45   O     O_3   0.854110 0.379030 0.633930 -0.469844
P1    P     P_3+3 0.994810 0.708030 0.567580 0.992619
P2    P     P_3+3 0.329370 0.428660 0.324010 1.021968
P3    P     P_3+3 0.906995 0.621250 0.264533 0.952687
P4    P     P_3+3 0.815490 0.291960 0.432360 0.967988
P5    P     P_3+3 0.898261 0.393373 0.739104 1.104168
P6    P     P_3+3 0.432407 0.785168 0.411853 0.991317
P7    P     P_3+3 0.481641 0.578513 0.688709 0.978345
P8    P     P_3+3 0.375837 0.215564 0.587840 1.069318
S1    S     S_3+6 0.076393 0.745700 0.820119 -0.035093
S2    S     S_3+6 0.239330 0.947044 0.775633 0.042435
S3    S     S_3+6 0.625060 0.856915 0.690810 -0.049067
S4    S     S_3+6 0.821324 0.138634 0.691758 -0.020747
S5    S     S_3+6 0.121216 0.243147 0.762447 -0.147901
S6    S     S_3+6 0.589492 0.317835 0.901756 -0.082889
S7    S     S_3+6 0.578944 0.238013 0.207023 -0.044319

loop_
_geom_bond_atom_site_label_1
_geom_bond_atom_site_label_2
_ccdc_geom_bond_type
C33   H28   S    
C26   P7    S    
C16   H29   S    
O37   S6    S    
O26   S3    D    
H39   O27   S    
Ba1   O1    S    
C27   P5    S    
C1    H3    S    
C22   H24   S    
C5    C6    A    
C43   H14   S    
C42   C43   S    
C6    H20   S    
O7    P7    S    
C35   H33   S    
O17   P3    D    
O41   P4    S    
C41   H43   S    
C28   O43   S    
O4    P1    S    
O39   S7    D    
C37   S2    S    
Ba2   O41   S    
O3    P5    S    
O33   S5    S    
C22   C24   A    
C8    C13   A    
C36   C37   S    
O11   P6    D    
C39   H50   S    
Ba2   O4    S    
C42   H13   S    
O6    P7    D    
C43   H16   S    
Ba1   Ba2   S    
O15   P2    D    
C24   P3    S    
C23   H4    S    
Ba1   O44   S    
O30   S4    S    
C28   H31   S    
Ba1   P2    S    
C26   C33   A    
C6    C7    A    
Ba2   O34   S    
C21   C22   A    
C25   H22   S    
C35   H1    S    
O12   P2    S    
C7    C8    A    
C8    C17   A    
C35   H12   S    
C34   H6    S    
O38   S7    D    
O28   S4    D    
C4    H47   S    
C29   H25   S    
C25   C30   A    
C36   H23   S    
O21   S2    D    
C19   C20   A    
C1    H40   S    
Ba2   O45   S    
C38   H37   S    
Ba1   O15   S    
C20   H26   S    
H41   O30   S    
O45   P5    S    
C4    C16   S    
C23   O7    S    
O1    P1    D    
C43   S6    S    
C15   C44   A    
O16   P3    S    
C3    H19   S    
O29   S4    D    
C3    C5    A    
O43   P4    S    
C12   H2    S    
Ba1   O10   S    
Ba2   P4    S    
H35   O20   S    
C39   H52   S    
C17   P4    S    
C28   C35   S    
C19   P2    S    
C2    C14   A    
C40   S5    S    
C9    C14   A    
O40   S7    S    
C29   C30   A    
Ba2   O6    S    
C42   H11   S    
C21   C32   S    
C13   H21   S    
O36   S6    D    
C31   C32   T    
C18   C19   A    
O20   S1    S    
C7    C9    A    
O42   P8    S    
C34   H7    S    
C34   H5    S    
O13   P1    S    
C5    P8    S    
C2    C15   A    
C10   C44   A    
C38   C39   S    
C11   C13   A    
C11   H46   S    
H48   O40   S    
O24   S2    S    
C39   H51   S    
Ba1   O16   S    
C38   H49   S    
C40   O3    S    
O18   S1    D    
O27   S3    S    
C4    H15   S    
C42   O9    S    
C41   H9    S    
C28   S7    S    
Ba1   O5    S    
C16   H30   S    
O8    P8    D    
C23   S3    S    
O14   P6    S    
O34   P4    D    
C37   H45   S    
Ba1   O41   S    
C2    P1    S    
O31   S5    D    
C38   O12   S    
C9    C10   A    
C3    C17   A    
C1    C12   S    
C27   C33   A    
C12   O14   S    
C4    O23   S    
Ba2   O42   S    
C37   H34   S    
O44   P7    S    
C40   S4    S    
O9    P8    S    
C36   S1    S    
Ba1   P1    S    
O5    P2    S    
C30   C31   S    
H44   O37   S    
C18   C24   A    
Ba2   O5    S    
O2    P5    D    
Ba2   O44   S    
O22   S2    D    
C18   H27   S    
O19   S1    D    
O35   S6    D    
C12   H32   S    
C16   H8    S    
C23   C34   S    
O10   P6    S    
O23   P3    S    
C41   H10   S    
C44   P6    S    
C10   C11   A    
C27   C29   A    
C40   C41   S    
C1    H38   S    
C20   C21   A    
O32   S5    D    
C14   H18   S    
H42   O33   S    
C36   O13   S    
Ba1   O4    S    
H36   O24   S    
C15   H17   S    
C25   C26   A    
O25   S3    D    
