data_mof_unit_pretest_285.cif
_audit_creation_date              2012-10-26T21:02:55-0400
_audit_creation_method            fapswitch 2.2
_symmetry_space_group_name_H-M    P1
_symmetry_Int_Tables_number       1
_space_group_crystal_system       triclinic
_cell_length_a                    12.386126
_cell_length_b                    13.226776
_cell_length_c                    23.474332
_cell_angle_alpha                 76.54061
_cell_angle_beta                  101.048544
_cell_angle_gamma                 116.893168
_cell_volume                      3319.07606425

loop_
_atom_site_label
_atom_site_type_symbol
_atom_type_description
_atom_site_fract_x
_atom_site_fract_y
_atom_site_fract_z
_atom_type_partial_charge
C1    C     C_R   0.854755 0.286553 0.505829 0.535077
C2    C     C_R   0.065392 0.592879 0.874220 0.414746
C3    C     C_R   0.953658 0.566260 0.747442 -0.066299
C4    C     C_R   0.999030 0.498751 0.608772 0.563321
C5    C     C_R   0.960826 0.572252 0.688096 0.191992
C6    C     C_R   0.997368 0.497282 0.671333 0.005292
C7    C     C_R   0.030921 0.420196 0.715001 0.204529
C8    C     C_R   0.030483 0.420827 0.774381 -0.058463
C9    C     C_R   0.990959 0.492833 0.790730 0.139747
C10   C     C_R   0.932620 0.545932 0.226114 -0.057204
C11   C     C_R   0.933085 0.546961 0.285370 -0.144318
C12   C     C_R   0.851966 0.293566 0.042324 -0.125480
C13   C     C_R   0.998904 0.497960 0.328766 -0.004338
C14   C     C_R   0.063205 0.446987 0.311946 -0.159492
C15   C     C_R   0.062067 0.445569 0.252661 -0.062149
C16   C     C_R   0.144769 0.713385 0.492657 0.516418
C17   C     C_R   0.997084 0.495298 0.209674 0.244598
C18   C     C_R   0.272694 0.031346 0.438224 -0.128599
C19   C     C_R   0.226925 0.835801 0.485601 -0.030122
C20   C     C_R   0.810640 0.086065 0.551973 -0.168753
C21   C     C_R   0.727604 0.978082 0.575862 0.262547
C22   C     C_R   0.602397 0.950106 0.564150 0.265147
C23   C     C_R   0.850192 0.293843 0.982779 -0.124568
C24   C     C_R   0.560145 0.017429 0.516916 -0.014213
C25   C     C_R   0.646242 0.125939 0.491713 -0.035768
C26   C     C_R   0.435290 0.982664 0.495145 0.031894
C27   C     C_R   0.396693 0.062194 0.456149 0.048903
C28   C     C_R   0.999755 0.499480 0.391216 0.529096
C29   C     C_R   0.482704 0.167885 0.431782 -0.131936
C30   C     C_R   0.605508 0.195479 0.446108 -0.109734
C31   C     C_R   0.349358 0.868385 0.506493 -0.109182
C32   C     C_R   0.187604 0.918730 0.453861 -0.145485
C33   C     C_R   0.770793 0.163504 0.513583 -0.069420
C34   C     C_R   0.921646 0.394178 0.946381 0.034656
C35   C     C_R   0.336064 0.314968 0.588993 0.231709
C36   C     C_R   0.759882 0.642537 0.418636 0.050412
C37   C     C_R   0.656526 0.659287 0.394211 0.229872
C38   C     C_R   0.548683 0.590497 0.420186 -0.082024
C39   C     C_R   0.546405 0.522152 0.475969 -0.038630
C40   C     C_R   0.066884 0.594248 0.114346 0.402047
C41   C     C_R   0.651077 0.501091 0.496325 0.150623
C42   C     C_R   0.441591 0.465827 0.509159 -0.045653
C43   C     C_R   0.437420 0.374867 0.556188 0.004704
C44   C     C_R   0.537972 0.348984 0.572369 -0.153812
C45   C     C_R   0.995666 0.495419 0.970252 -0.073636
C46   C     C_R   0.643835 0.413655 0.544689 -0.103570
C47   C     C_R   0.346127 0.502182 0.501390 0.393344
C48   C     C_R   0.238458 0.344879 0.574449 0.026983
C49   C     C_R   0.926745 0.395729 0.126328 0.400694
C50   C     C_R   0.924595 0.393809 0.066637 0.039365
C51   C     C_R   0.996459 0.495137 0.030498 -0.043371
C52   C     C_R   0.068225 0.596232 0.054482 -0.016358
C53   C     C_3   0.508394 0.908498 0.645965 -0.122288
C54   C     C_3   0.729811 0.799682 0.604481 0.040612
C55   C     C_3   0.693506 0.709776 0.660088 -0.221503
C56   C     C_R   0.068199 0.596693 0.934029 0.033427
C57   C     C_3   0.632847 0.587887 0.646207 -0.452470
C58   C     C_3   0.341183 0.256033 0.688186 -0.144095
C59   C     C_3   0.322695 0.632704 0.418503 -0.063646
C60   C     C_3   0.723500 0.846797 0.347965 0.007167
C61   C     C_3   0.646647 0.890563 0.370508 -0.269917
C62   C     C_3   0.716894 0.017854 0.375134 -0.473375
C63   C     C_3   0.332844 0.826143 0.936230 0.032116
C64   C     C_3   0.404053 0.932800 0.893305 -0.244449
C65   C     C_3   0.540618 0.966845 0.905064 -0.480013
C66   C     C_3   0.032998 0.747782 0.628106 0.020053
C67   C     C_R   0.141634 0.697711 0.958779 0.251709
C68   C     C_3   0.073281 0.837484 0.668118 -0.299841
C69   C     C_3   0.179449 0.948079 0.645423 -0.443147
C70   C     C_3   0.967167 0.242017 0.693902 -0.114732
C71   C     C_R   0.138930 0.696864 0.018316 -0.115604
C72   C     C_R   0.920487 0.395781 0.886435 0.400424
Cu1   Cu    Cu3+1 0.098270 0.475410 0.513370 0.970390
Cu2   Cu    Cu3+1 0.901730 0.524590 0.486630 0.910556
H1    H     H_    0.795853 0.214720 0.069138 0.162017
H2    H     H_    0.792718 0.215093 0.965408 0.156122
H3    H     H_    0.667789 0.272029 0.420581 0.158239
H4    H     H_    0.157291 0.295734 0.597154 0.148331
H5    H     H_    0.537577 0.281195 0.608741 0.162608
H6    H     H_    0.842188 0.687840 0.396629 0.128684
H7    H     H_    0.467160 0.581531 0.392811 0.126997
H8    H     H_    0.717622 0.391072 0.562117 0.181401
H9    H     H_    0.192184 0.775965 0.035939 0.168247
H10   H     H_    0.922385 0.621527 0.760078 0.145871
H11   H     H_    0.060281 0.364569 0.807886 0.155988
H12   H     H_    0.882889 0.586914 0.297142 0.135265
H13   H     H_    0.882196 0.584378 0.192905 0.129559
H14   H     H_    0.469501 0.971697 0.626796 0.115276
H15   H     H_    0.595499 0.949222 0.673428 0.140613
H16   H     H_    0.443066 0.837941 0.675278 0.141986
H17   H     H_    0.805870 0.796002 0.587845 0.146555
H18   H     H_    0.651743 0.776960 0.569494 0.159887
H19   H     H_    0.775677 0.720428 0.691664 0.174477
H20   H     H_    0.628968 0.722811 0.681351 0.199134
H21   H     H_    0.544297 0.572565 0.619433 0.162878
H22   H     H_    0.616283 0.525066 0.687827 0.140844
H23   H     H_    0.113334 0.407294 0.344541 0.117922
H24   H     H_    0.691922 0.574290 0.621638 0.202493
H25   H     H_    0.423215 0.337888 0.693621 0.124399
H26   H     H_    0.351448 0.188252 0.723729 0.137745
H27   H     H_    0.257944 0.262908 0.694089 0.154137
H28   H     H_    0.254801 0.667092 0.413971 0.163514
H29   H     H_    0.283176 0.554592 0.397463 0.100326
H30   H     H_    0.394660 0.702894 0.392407 0.098617
H31   H     H_    0.750104 0.897995 0.304028 0.169762
H32   H     H_    0.810043 0.862346 0.377103 0.101766
H33   H     H_    0.562901 0.877816 0.339822 0.178551
H34   H     H_    0.111867 0.406183 0.240028 0.124378
H35   H     H_    0.619541 0.841228 0.414715 0.167877
H36   H     H_    0.797396 0.031785 0.408199 0.147763
H37   H     H_    0.656899 0.047454 0.389120 0.162370
H38   H     H_    0.747215 0.069606 0.331806 0.168628
H39   H     H_    0.350223 0.753406 0.930688 0.145794
H40   H     H_    0.365896 0.844545 0.981922 0.120710
H41   H     H_    0.372947 0.915295 0.847465 0.193574
H42   H     H_    0.386192 0.005649 0.897705 0.176527
H43   H     H_    0.574194 0.987055 0.950300 0.152377
H44   H     H_    0.589389 0.044353 0.873133 0.175998
H45   H     H_    0.092843 0.895003 0.437533 0.120674
H46   H     H_    0.560928 0.895964 0.899946 0.154281
H47   H     H_    0.008973 0.785215 0.582728 0.161839
H48   H     H_    0.110221 0.727936 0.625383 0.126744
H49   H     H_    0.996068 0.857058 0.670387 0.188855
H50   H     H_    0.102073 0.803158 0.713248 0.193075
H51   H     H_    0.257207 0.930410 0.641878 0.147150
H52   H     H_    0.208899 0.008643 0.676888 0.195181
H53   H     H_    0.151582 0.988288 0.601625 0.174805
H54   H     H_    0.924997 0.199543 0.736010 0.132979
H55   H     H_    0.997560 0.183545 0.681652 0.140442
H56   H     H_    0.455118 0.226546 0.398867 0.111253
H57   H     H_    0.898479 0.253869 0.658094 0.110279
H58   H     H_    0.242340 0.092807 0.409828 0.107539
H59   H     H_    0.377847 0.801644 0.527430 0.219767
H60   H     H_    0.906131 0.112544 0.567563 0.144883
N1    N     N_R   0.997049 0.494987 0.148771 -0.395788
N2    N     N_R   0.991991 0.493826 0.851844 -0.399695
N3    N     N_R   0.246280 0.438190 0.533650 -0.251455
N4    N     N_R   0.754320 0.561190 0.466710 -0.266449
O1    O     O_R   0.972510 0.318130 0.516820 -0.512079
O2    O     O_R   0.082990 0.479280 0.429170 -0.518549
O3    O     O_R   0.917010 0.520800 0.406580 -0.508286
O4    O     O_2   0.135272 0.690395 0.138143 -0.500064
O5    O     O_3   0.524618 0.861423 0.601953 -0.586034
O6    O     O_3   0.770785 0.910345 0.619038 -0.579490
O7    O     O_3   0.330649 0.223834 0.633425 -0.604517
O8    O     O_3   0.372707 0.616907 0.477697 -0.559376
O9    O     O_3   0.655044 0.730239 0.340776 -0.577398
O10   O     O_3   0.207757 0.800266 0.923907 -0.522359
O11   O     O_3   0.927713 0.649379 0.646784 -0.583040
O12   O     O_2   0.858615 0.299625 0.161614 -0.506609
O13   O     O_3   0.069223 0.347222 0.700187 -0.568905
O14   O     O_2   0.847721 0.300345 0.862688 -0.525738
O15   O     O_2   0.136352 0.686574 0.838636 -0.480342
O16   O     O_R   0.806530 0.359650 0.494230 -0.519895
O17   O     O_R   0.082990 0.479200 0.593420 -0.455122
O18   O     O_R   0.917010 0.520720 0.570830 -0.491201
O19   O     O_R   0.193470 0.640350 0.505770 -0.462447
O20   O     O_R   0.027490 0.681870 0.483180 -0.517628

loop_
_geom_bond_atom_site_label_1
_geom_bond_atom_site_label_2
_ccdc_geom_bond_type
C54   O6    S    
C64   H42   S    
C40   O4    S    
C27   C29   A    
Cu1   Cu2   S    
C66   C68   S    
C28   O2    A    
C23   H2    S    
C55   H19   S    
C19   C31   A    
C68   H50   S    
C58   O7    S    
C1    C33   S    
C7    C8    A    
C39   C41   A    
Cu2   N4    S    
C12   C23   A    
C26   C27   A    
C29   C30   A    
C48   N3    A    
C59   H30   S    
C21   C22   A    
C36   C37   A    
C24   C26   A    
C38   C39   A    
C72   N2    A    
C45   C51   A    
C10   C17   A    
Cu1   O19   S    
C5    O11   S    
Cu2   O16   S    
C8    H11   S    
C35   O7    S    
C48   H4    S    
C46   H8    S    
C30   H3    S    
C18   H58   S    
C62   H37   S    
C45   C56   A    
C35   C48   A    
C68   C69   S    
C72   O14   S    
C57   H22   S    
C22   O5    S    
C17   N1    S    
C41   C46   A    
C66   H48   S    
C13   C28   S    
C60   O9    S    
C35   C43   A    
C1    O1    A    
C31   H59   S    
C49   N1    A    
C47   O8    S    
C61   H35   S    
C26   C31   A    
C64   H41   S    
C13   C14   A    
C63   H40   S    
C47   N3    A    
C61   C62   S    
C3    H10   S    
C55   H20   S    
C19   C32   A    
C68   H49   S    
C44   C46   A    
C39   C42   A    
C71   H9    S    
C40   N1    A    
C10   H13   S    
Cu2   O20   S    
C16   O20   A    
C51   C52   A    
C58   H26   S    
C24   C25   A    
C66   O11   S    
C4    C6    S    
C36   H6    S    
C34   C45   A    
C8    C9    A    
Cu1   O1    S    
C40   C52   A    
C70   H55   S    
C2    N2    A    
C60   C61   S    
C53   O5    S    
C15   H34   S    
C58   H25   S    
C43   C44   A    
C9    N2    S    
C54   H18   S    
C37   C38   A    
C3    C9    A    
C29   H56   S    
C62   H36   S    
C65   H44   S    
C23   C34   A    
Cu1   O17   S    
C50   C51   A    
C66   H47   S    
Cu2   O18   S    
C58   H27   S    
C37   O9    S    
C41   N4    A    
C7    O13   S    
C20   C33   A    
C49   O12   S    
C4    O18   A    
Cu2   O3    S    
C69   H52   S    
C2    O15   S    
C55   C57   S    
C38   H7    S    
C53   H15   S    
C22   C24   A    
C18   C32   A    
C42   C43   A    
C32   H45   S    
C34   C72   A    
C63   O10   S    
C53   H16   S    
C60   H32   S    
C14   H23   S    
C70   H54   S    
C25   C30   A    
C15   C17   A    
C54   C55   S    
C16   O19   A    
C59   H28   S    
C44   H5    S    
C18   C27   A    
C21   O6    S    
C3    C5    A    
C12   C50   A    
C6    C7    A    
Cu1   O2    S    
C56   C67   A    
C59   H29   S    
C64   C65   S    
C54   H17   S    
C52   C71   A    
C2    C56   A    
C11   C13   A    
C5    C6    A    
Cu1   N3    S    
C16   C19   S    
C57   H24   S    
C70   H57   S    
C65   H46   S    
C53   H14   S    
C67   C71   A    
C42   C47   A    
C1    O16   A    
C61   H33   S    
C10   C11   A    
C69   H51   S    
C63   C64   S    
C63   H39   S    
C59   O8    S    
C4    O17   A    
C62   H38   S    
C20   C21   A    
C69   H53   S    
C49   C50   A    
C57   H21   S    
C12   H1    S    
C67   O10   S    
C65   H43   S    
C14   C15   A    
C28   O3    A    
C11   H12   S    
C20   H60   S    
C70   O13   S    
C36   N4    A    
C60   H31   S    
C25   C33   A    
