data_mof_unit_pretest_688.cif
_audit_creation_date              2012-12-10T18:07:45-0500
_audit_creation_method            fapswitch 2.2
_symmetry_space_group_name_H-M    P1
_symmetry_Int_Tables_number       1
_space_group_crystal_system       triclinic
_cell_length_a                    10.629908
_cell_length_b                    12.757629
_cell_length_c                    13.865972
_cell_angle_alpha                 98.096302
_cell_angle_beta                  91.021823
_cell_angle_gamma                 92.600794
_cell_volume                      1859.18011841

loop_
_atom_site_label
_atom_site_type_symbol
_atom_type_description
_atom_site_fract_x
_atom_site_fract_y
_atom_site_fract_z
_atom_type_partial_charge
C1    C     C_R   0.498844 0.483379 0.315884 0.839858
C2    C     C_R   0.501717 0.516520 0.684149 0.839371
C3    C     C_2   0.454244 0.028916 0.483378 0.293527
C4    C     C_2   0.537600 0.972622 0.529057 0.286120
C5    C     C_1   0.525536 0.854502 0.519749 0.159143
C6    C     C_1   0.471649 0.146054 0.484867 0.143040
C7    C     C_R   0.259276 0.500019 0.494006 0.945817
C8    C     C_R   0.740901 0.499885 0.503422 0.917259
C9    C     C_3   0.031837 0.408156 0.447740 0.310930
C10   C     C_3   0.969507 0.593239 0.549586 0.241939
C11   C     C_3   0.951448 0.489637 0.407418 0.225232
C12   C     C_3   0.049707 0.510031 0.590501 0.221665
C13   C     C_3   0.877272 0.500246 0.502782 -0.315615
C14   C     C_3   0.122905 0.500229 0.493978 -0.280929
C15   C     C_3   0.959119 0.418229 0.542998 0.284106
C16   C     C_3   0.040729 0.582180 0.453503 0.258540
C17   C     C_1   0.503360 0.525820 0.787482 -0.176176
C18   C     C_1   0.499709 0.473328 0.212615 -0.153128
C19   C     C_2   0.505695 0.542487 0.979547 0.380020
C20   C     C_2   0.503375 0.452777 0.020320 0.372833
C21   C     C_1   0.501002 0.463570 0.125481 -0.074554
C22   C     C_1   0.504710 0.533751 0.874611 -0.081506
Cu1   Cu    Cu3+1 0.491940 0.395330 0.493960 1.003425
Cu2   Cu    Cu3+1 0.508060 0.604670 0.506040 1.013436
N1    N     N_1   0.479830 0.238040 0.484880 -0.167639
N2    N     N_1   0.520170 0.761960 0.515120 -0.159562
O1    O     O_R   0.492210 0.399110 0.356330 -0.580566
O2    O     O_R   0.507790 0.600890 0.643670 -0.587216
O3    O     O_R   0.505820 0.575890 0.366540 -0.562766
O4    O     O_R   0.494180 0.424110 0.633460 -0.574368
O5    O     O_R   0.310050 0.411620 0.494870 -0.548072
O6    O     O_R   0.689950 0.588380 0.505130 -0.551669
O7    O     O_R   0.323660 0.588400 0.505080 -0.562352
O8    O     O_R   0.676340 0.411600 0.494920 -0.573333
O9    O     O_3   0.886516 0.479088 0.316519 -0.626603
C23   C     C_3   0.972038 0.464352 0.239649 0.075477
H1    H     H_    0.001526 0.381456 0.229557 0.180309
H2    H     H_    0.057679 0.518363 0.253059 0.166186
C24   C     C_3   0.906148 0.485730 0.145958 -0.351327
H3    H     H_    0.815247 0.438702 0.135396 0.227832
H4    H     H_    0.885817 0.571087 0.152236 0.214726
C25   C     C_3   0.986837 0.456320 0.057200 -0.950416
H5    H     H_    0.077726 0.503611 0.065211 0.266991
H6    H     H_    0.935960 0.472662 0.990673 0.251534
H7    H     H_    0.005763 0.370620 0.048429 0.257580
O10   O     O_3   0.123057 0.512516 0.677512 -0.604410
C26   C     C_3   0.062812 0.559737 0.761813 0.033714
H8    H     H_    0.022154 0.497326 0.801468 0.130574
H9    H     H_    0.984924 0.610523 0.746822 0.175729
C27   C     C_3   0.162165 0.623356 0.830427 -0.304791
H10   H     H_    0.224889 0.567540 0.860028 0.228678
H11   H     H_    0.221533 0.675373 0.789923 0.218254
C28   C     C_3   0.102274 0.691590 0.914984 -0.939687
H12   H     H_    0.047959 0.753944 0.887525 0.258664
H13   H     H_    0.177090 0.730550 0.966467 0.268634
H14   H     H_    0.038367 0.642420 0.954682 0.264070
O11   O     O_3   0.075109 0.314755 0.393897 -0.576899
C29   C     C_3   0.973054 0.240334 0.368532 0.121329
H15   H     H_    0.886188 0.277685 0.346733 0.176007
H16   H     H_    0.951330 0.197206 0.430773 0.197138
C30   C     C_3   0.008618 0.159459 0.283105 -0.867533
H17   H     H_    0.091561 0.116671 0.302951 0.248750
H18   H     H_    0.928416 0.101211 0.262921 0.213536
H19   H     H_    0.031564 0.199168 0.218965 0.245008
O12   O     O_3   0.923993 0.687655 0.599559 -0.575473
C31   C     C_3   0.025343 0.761643 0.628444 0.107290
H20   H     H_    0.064566 0.794885 0.565408 0.171847
H21   H     H_    0.103882 0.726187 0.663910 0.159393
C32   C     C_3   0.978359 0.852339 0.699597 -0.858940
H22   H     H_    0.927954 0.821072 0.759754 0.250329
H23   H     H_    0.059120 0.905339 0.730756 0.209959
H24   H     H_    0.913057 0.898728 0.661089 0.247548
O13   O     O_3   0.907485 0.327812 0.578685 -0.608159
C33   C     C_3   0.874418 0.352748 0.676597 0.070889
H25   H     H_    0.838749 0.434097 0.693555 0.108930
H26   H     H_    0.958193 0.343186 0.722870 0.170900
C34   C     C_3   0.771073 0.273929 0.699086 -0.314114
H27   H     H_    0.685478 0.281438 0.653871 0.258821
H28   H     H_    0.804472 0.192703 0.680445 0.238101
C35   C     C_3   0.738480 0.292653 0.806630 -0.910289
H29   H     H_    0.821523 0.280331 0.852776 0.241341
H30   H     H_    0.660877 0.236131 0.820438 0.279948
H31   H     H_    0.707612 0.374607 0.827193 0.276236
O14   O     O_3   0.096019 0.663202 0.405988 -0.606225
C36   C     C_3   0.002479 0.721815 0.366846 0.086848
H32   H     H_    0.971451 0.784908 0.423442 0.161528
H33   H     H_    0.917265 0.672884 0.338310 0.181638
C37   C     C_3   0.058334 0.773108 0.282995 -0.345466
H34   H     H_    0.148866 0.816414 0.307450 0.254487
H35   H     H_    0.077955 0.710461 0.221668 0.220367
C38   C     C_3   0.968693 0.850180 0.247145 -0.954913
H36   H     H_    0.878022 0.808155 0.221291 0.266457
H37   H     H_    0.011461 0.885480 0.185930 0.266856
H38   H     H_    0.950431 0.914961 0.306845 0.256873
O15   O     O_3   0.511008 0.355119 0.960480 -0.637947
C39   C     C_3   0.487881 0.265706 0.008959 0.065740
H39   H     H_    0.452099 0.199254 0.953334 0.164587
H40   H     H_    0.412012 0.277561 0.063281 0.140710
C40   C     C_3   0.609983 0.232242 0.054263 -0.352176
H41   H     H_    0.677591 0.209052 0.995821 0.220210
H42   H     H_    0.654405 0.299219 0.104872 0.221027
C41   C     C_3   0.585090 0.139244 0.110618 -0.906119
H43   H     H_    0.521251 0.162144 0.171807 0.268147
H44   H     H_    0.675392 0.115986 0.141003 0.255369
H45   H     H_    0.541717 0.070041 0.061913 0.250309
O16   O     O_3   0.495586 0.639850 0.038627 -0.627690
C42   C     C_3   0.567815 0.722953 0.005102 0.070110
H46   H     H_    0.538506 0.798543 0.046521 0.176152
H47   H     H_    0.548099 0.729166 0.927124 0.138501
C43   C     C_3   0.709028 0.713414 0.025376 -0.367733
H48   H     H_    0.724418 0.707317 0.103806 0.225876
H49   H     H_    0.742641 0.640562 0.981863 0.206323
C44   C     C_3   0.786053 0.809160 0.999915 -0.933080
H50   H     H_    0.777681 0.813037 0.920560 0.256593
H51   H     H_    0.886672 0.801976 0.019412 0.266275
H52   H     H_    0.753301 0.883577 0.041214 0.263888
O17   O     O_3   0.634788 0.028827 0.585848 -0.643924
C45   C     C_3   0.655221 0.987264 0.674330 0.039020
H53   H     H_    0.740687 0.028791 0.711032 0.166136
H54   H     H_    0.677259 0.902093 0.661893 0.156944
C46   C     C_3   0.544178 0.006095 0.743319 -0.370149
H55   H     H_    0.522239 0.091151 0.752531 0.227143
H56   H     H_    0.459025 0.958937 0.711820 0.201235
C47   C     C_3   0.574154 0.973947 0.842751 -0.931184
H57   H     H_    0.595441 0.888796 0.834692 0.257904
H58   H     H_    0.491471 0.986507 0.890052 0.249342
H59   H     H_    0.656128 0.022489 0.878157 0.261626
O18   O     O_3   0.349236 0.973584 0.436205 -0.630973
C48   C     C_3   0.237148 0.027972 0.456971 0.053416
H60   H     H_    0.159868 0.983230 0.411877 0.171167
H61   H     H_    0.242266 0.108407 0.434650 0.167418
C49   C     C_3   0.201937 0.032924 0.564656 -0.399888
H62   H     H_    0.196364 0.951556 0.584323 0.219728
H63   H     H_    0.275306 0.080016 0.612379 0.209112
C50   C     C_3   0.076222 0.084193 0.583942 -0.863350
H64   H     H_    0.052293 0.085140 0.661652 0.247673
H65   H     H_    0.999924 0.039065 0.537770 0.252414
H66   H     H_    0.082916 0.167292 0.568500 0.295246

loop_
_geom_bond_atom_site_label_1
_geom_bond_atom_site_label_2
_ccdc_geom_bond_type
C50   H66   S    
C31   H21   S    
C8    C13   S    
C32   H24   S    
C18   C21   T    
C7    O7    A    
O13   C33   S    
C28   H13   S    
O9    C23   S    
C3    C6    S    
O18   C48   S    
C50   H64   S    
C26   H9    S    
C34   H27   S    
C1    C18   S    
C33   H26   S    
C23   H1    S    
Cu2   N2    S    
C44   H50   S    
C10   O12   S    
C31   C32   S    
O16   C42   S    
C29   H16   S    
C39   C40   S    
C16   O14   S    
C41   H45   S    
C32   H23   S    
C30   H18   S    
C45   H53   S    
C46   C47   S    
Cu2   O3    S    
C7    C14   S    
C19   C20   D    
C49   H62   S    
C33   C34   S    
C39   H40   S    
C26   H8    S    
C27   H11   S    
Cu1   Cu2   S    
C12   C15   S    
Cu1   O1    S    
C24   C25   S    
C30   H17   S    
C44   H52   S    
C29   C30   S    
C34   H28   S    
C31   H20   S    
C2    C17   S    
C42   H47   S    
C32   H22   S    
C25   H6    S    
C35   H31   S    
C26   C27   S    
C45   H54   S    
C36   H33   S    
C27   C28   S    
C7    O5    A    
C33   H25   S    
C8    O6    A    
Cu1   O4    S    
C19   C22   S    
O14   C36   S    
C35   H30   S    
C24   H3    S    
C3    O18   S    
C4    C5    S    
C29   H15   S    
C36   H32   S    
C43   H48   S    
C45   C46   S    
Cu1   O5    S    
C30   H19   S    
C9    C14   S    
Cu2   O6    S    
Cu2   O7    S    
C38   H37   S    
C11   C16   S    
C40   H41   S    
C37   C38   S    
C42   H46   S    
Cu1   O8    S    
C39   H39   S    
C1    O3    A    
C27   H10   S    
C8    O8    A    
C20   C21   S    
C41   H44   S    
C9    C11   S    
C43   C44   S    
C46   H55   S    
C10   C12   S    
C47   H59   S    
C12   O10   S    
C15   O13   S    
C20   O15   S    
C12   C14   S    
C13   C15   S    
C42   C43   S    
C14   C16   S    
C4    O17   S    
C25   H5    S    
C3    C4    D    
C38   H36   S    
C36   C37   S    
C47   H58   S    
C48   H60   S    
C28   H14   S    
C50   H65   S    
O10   C26   S    
C40   H42   S    
C23   C24   S    
Cu2   O2    S    
C37   H35   S    
C35   H29   S    
C10   C13   S    
C28   H12   S    
C17   C22   T    
C2    O4    A    
C48   C49   S    
C11   O9    S    
C9    C15   S    
C10   C16   S    
O17   C45   S    
C38   H38   S    
C11   C13   S    
O11   C29   S    
C34   C35   S    
C49   C50   S    
C23   H2    S    
C9    O11   S    
Cu1   N1    S    
C41   H43   S    
C43   H49   S    
C46   H56   S    
C5    N2    T    
C6    N1    T    
C19   O16   S    
C40   C41   S    
C37   H34   S    
C24   H4    S    
C49   H63   S    
O12   C31   S    
O15   C39   S    
C1    O1    A    
C2    O2    A    
C44   H51   S    
C25   H7    S    
C47   H57   S    
C48   H61   S    
