data_mof_unit_pretest_1478.cif
_audit_creation_date              2013-03-05T15:44:21-0500
_audit_creation_method            fapswitch 2.2
_symmetry_space_group_name_H-M    P1
_symmetry_Int_Tables_number       1
_space_group_crystal_system       triclinic
_cell_length_a                    18.984443
_cell_length_b                    18.837122
_cell_length_c                    20.409527
_cell_angle_alpha                 106.89102
_cell_angle_beta                  106.549831
_cell_angle_gamma                 111.528286
_cell_volume                      5834.56983222

loop_
_atom_site_label
_atom_site_type_symbol
_atom_site_description
_atom_site_fract_x
_atom_site_fract_y
_atom_site_fract_z
_atom_type_partial_charge
C1    C     C_R   0.091217 0.089027 0.357409 -0.116050
H1    H     H_    0.141573 0.153966 0.382653 0.100514
N1    N     N_R   0.052580 0.056040 0.395500 -0.044145
C2    C     C_R   0.766580 0.922273 0.510998 0.303374
N2    N     N_R   0.834730 0.954500 0.499860 -0.052566
C3    C     C_R   0.837119 0.808526 0.281020 0.381513
N3    N     N_R   0.890210 0.849400 0.355780 -0.092548
C4    C     C_R   0.948118 0.194284 0.519379 -0.072842
H2    H     H_    0.902938 0.197066 0.540746 0.109947
N4    N     N_R   0.997110 0.161140 0.539580 -0.042619
C5    C     C_R   0.760936 0.809727 0.346402 -0.155409
H3    H     H_    0.710003 0.804344 0.361692 0.144094
N5    N     N_R   0.841950 0.845400 0.395490 -0.065729
C6    C     C_R   0.025704 0.200882 0.454626 -0.100433
H4    H     H_    0.052195 0.210024 0.415585 0.111359
N6    N     N_R   0.045360 0.165140 0.499870 -0.055171
C7    C     C_R   0.831212 0.063456 0.571668 -0.156800
H5    H     H_    0.853362 0.126947 0.613422 0.148816
N7    N     N_R   0.877490 0.041510 0.539580 -0.051562
C8    C     C_R   0.023046 0.949035 0.293374 -0.043901
H6    H     H_    0.011079 0.886621 0.259392 0.154446
N8    N     N_R   0.009820 0.969030 0.355780 -0.050400
C9    C     C_R   0.075573 0.022988 0.293620 0.058374
C10   C     C_R   0.760918 0.989721 0.554891 0.024938
C11   C     C_R   0.755513 0.785923 0.273555 -0.014479
C12   C     C_R   0.962985 0.218308 0.464244 0.048652
C13   C     C_R   0.232440 0.226353 0.646298 -0.193531
H7    H     H_    0.275968 0.251583 0.623922 0.122493
N9    N     N_R   0.158050 0.154600 0.604510 -0.056489
C14   C     C_R   0.921305 0.756125 0.495136 -0.131113
H8    H     H_    0.871067 0.731275 0.510881 0.091550
N10   N     N_R   0.954640 0.834860 0.500130 -0.043504
C15   C     C_R   0.175491 0.928630 0.472771 -0.115936
H9    H     H_    0.157140 0.862148 0.452663 0.136748
N11   N     N_R   0.122510 0.958490 0.460420 -0.053029
C16   C     C_R   0.031687 0.051973 0.718008 -0.015685
H10   H     H_    0.071219 0.115632 0.763324 0.167415
N12   N     N_R   0.990180 0.030970 0.644220 -0.048718
C17   C     C_R   0.962661 0.910497 0.653142 -0.124859
H11   H     H_    0.939604 0.843561 0.637624 0.110975
N13   N     N_R   0.947420 0.943960 0.604500 -0.052927
C18   C     C_R   0.247725 0.071002 0.534389 -0.107380
H12   H     H_    0.297603 0.136323 0.568189 0.102031
N14   N     N_R   0.165270 0.045500 0.500140 -0.047016
C19   C     C_R   0.154829 0.223235 0.709639 0.359471
N15   N     N_R   0.109790 0.150600 0.644220 -0.083942
C20   C     C_R   0.998947 0.763536 0.431518 -0.092448
H13   H     H_    0.020155 0.746356 0.388640 0.125008
N16   N     N_R   0.002890 0.838860 0.460420 -0.045583
Ni1   Ni    Ni4+2 0.104370 0.104380 0.500010 0.221908
Ni2   Ni    Ni4+2 0.895630 0.895620 0.499990 0.218370
Ni3   Ni    Ni4+2 0.006300 0.904810 0.408930 0.271175
Ni4   Ni    Ni4+2 0.993700 0.095190 0.591070 0.301968
C21   C     C_R   0.232882 0.271911 0.713092 -0.062185
C22   C     C_R   0.947539 0.709267 0.451792 0.071291
C23   C     C_R   0.255531 0.997886 0.517456 0.083335
C24   C     C_R   0.017859 0.977571 0.724996 0.110492
C25   C     C_R   0.863761 0.568776 0.447078 -0.189762
C26   C     C_R   0.917307 0.617139 0.423211 0.073937
C27   C     C_R   0.946671 0.578312 0.375930 -0.106580
C28   C     C_R   0.933853 0.496267 0.361837 -0.080822
C29   C     C_R   0.887163 0.451485 0.393128 0.026492
C30   C     C_R   0.848572 0.486261 0.432408 0.122265
C31   C     C_R   0.970040 0.459825 0.320427 0.216104
C32   C     C_R   0.967849 0.383590 0.318084 0.206637
C33   C     C_R   0.931207 0.345610 0.358818 -0.053264
C34   C     C_R   0.885242 0.375830 0.391226 -0.011312
C35   C     C_R   0.844748 0.335431 0.428836 -0.004301
C36   C     C_R   0.795797 0.363907 0.458120 0.335720
C37   C     C_R   0.799808 0.440431 0.460956 -0.306702
C38   C     C_R   0.948501 0.285435 0.376118 -0.085243
C39   C     C_R   0.921893 0.257174 0.425523 0.066112
C40   C     C_R   0.863496 0.275602 0.445159 -0.138272
H14   H     H_    0.837908 0.596463 0.481211 0.119415
H15   H     H_    0.983913 0.613681 0.353812 0.163186
H16   H     H_    0.990289 0.267912 0.357985 0.150983
H17   H     H_    0.840080 0.250927 0.480531 0.155097
H18   H     H_    0.766781 0.465562 0.487592 0.183042
C41   C     C_R   0.404261 0.056712 0.607632 -0.254755
C42   C     C_R   0.332007 0.991276 0.541048 0.063611
C43   C     C_R   0.332303 0.918018 0.496924 0.240384
C44   C     C_R   0.399060 0.904382 0.528256 -0.062849
C45   C     C_R   0.475957 0.975975 0.586398 -0.031258
C46   C     C_R   0.478613 0.052273 0.626905 0.154743
C47   C     C_R   0.395872 0.825470 0.494807 0.339346
C48   C     C_R   0.471098 0.825034 0.504137 -0.311049
C49   C     C_R   0.547567 0.900933 0.548979 0.077723
C50   C     C_R   0.551222 0.974776 0.595542 0.064611
C51   C     C_R   0.629282 0.050469 0.642414 0.132334
C52   C     C_R   0.631534 0.123612 0.688622 -0.161559
C53   C     C_R   0.556250 0.124149 0.681590 -0.156126
C54   C     C_R   0.618251 0.906079 0.540460 -0.205385
C55   C     C_R   0.694675 0.982754 0.580353 0.111825
C56   C     C_R   0.701678 0.053566 0.635631 -0.217917
H19   H     H_    0.404513 0.113581 0.640486 0.141337
H20   H     H_    0.469849 0.766618 0.473442 0.186179
H21   H     H_    0.608906 0.852243 0.494772 0.151839
H22   H     H_    0.760838 0.112792 0.668087 0.139532
H23   H     H_    0.690995 0.181740 0.726344 0.152728
H24   H     H_    0.558940 0.182641 0.714297 0.143548
C57   C     C_R   0.293721 0.362658 0.762489 0.151913
C58   C     C_R   0.266923 0.422368 0.783510 -0.096300
C59   C     C_R   0.325966 0.507127 0.834311 -0.150523
C60   C     C_R   0.412359 0.533280 0.862835 0.184551
C61   C     C_R   0.439065 0.475482 0.835846 -0.154362
C62   C     C_R   0.380038 0.390474 0.786220 -0.134833
C63   C     C_R   0.602777 0.757543 0.089617 -0.257285
C64   C     C_R   0.674782 0.794954 0.158423 0.359029
C65   C     C_R   0.607201 0.672806 0.182455 0.241958
C66   C     C_R   0.534850 0.639227 0.115286 -0.162125
C67   C     C_R   0.533279 0.679955 0.068059 0.091140
C68   C     C_2   0.474820 0.614691 0.930065 -0.203148
C69   C     C_2   0.461553 0.634335 0.992420 -0.139984
C70   C     C_R   0.678273 0.750765 0.203954 -0.041111
H25   H     H_    0.200595 0.403496 0.761841 0.151041
H26   H     H_    0.399762 0.597250 0.988491 0.152915
H27   H     H_    0.505580 0.494749 0.857373 0.138738
H28   H     H_    0.600395 0.789123 0.052983 0.184436
H29   H     H_    0.401789 0.345709 0.768685 0.136000
H30   H     H_    0.538812 0.644317 0.935874 0.160621
H31   H     H_    0.304390 0.551487 0.853631 0.138484
H32   H     H_    0.480826 0.578511 0.097378 0.154897
C71   C     C_R   0.126002 0.029435 0.250474 0.073414
C72   C     C_R   0.142311 0.963131 0.220531 -0.200143
C73   C     C_R   0.179769 0.963564 0.170640 0.276762
C74   C     C_R   0.200897 0.031600 0.150748 0.119964
C75   C     C_R   0.194343 0.102551 0.188297 -0.150041
C76   C     C_R   0.156883 0.101401 0.237727 -0.158059
C77   C     C_R   0.165237 0.038996 0.925428 0.210595
C78   C     C_R   0.138818 0.034190 0.851704 0.221117
C79   C     C_R   0.005951 0.908102 0.809381 -0.229665
C80   C     C_R   0.032549 0.910130 0.881253 0.265831
C81   C     C_R   0.110408 0.978842 0.941017 -0.051562
C82   C     C_2   0.198711 0.016704 0.075476 -0.140119
C83   C     C_2   0.125575 0.994667 0.019925 -0.116141
C84   C     C_R   0.056170 0.971901 0.795406 -0.096190
H33   H     H_    0.123387 0.909292 0.233546 0.141344
H34   H     H_    0.943483 0.858872 0.765304 0.156841
H35   H     H_    0.072183 0.987044 0.032910 0.162179
H36   H     H_    0.209632 0.154721 0.172767 0.189536
H37   H     H_    0.146554 0.154012 0.261464 0.156006
H38   H     H_    0.252725 0.020316 0.065284 0.175565
N17   N     N_R   0.118272 0.254088 0.755606 0.204465
O1    O     O_R   0.163670 0.302038 0.828575 -0.353959
O2    O     O_R   0.037627 0.227290 0.726193 -0.442747
N18   N     N_R   0.010722 0.500672 0.282108 0.259892
O3    O     O_R   0.083694 0.569746 0.321421 -0.305313
O4    O     O_R   0.981202 0.462185 0.208366 -0.304285
C85   C     C_3   0.735897 0.836212 0.511228 -1.056164
H39   H     H_    0.726380 0.839057 0.562954 0.264997
H40   H     H_    0.676633 0.787688 0.459227 0.242165
H41   H     H_    0.782885 0.814473 0.511692 0.256381
N19   N     N_R   0.006949 0.347777 0.278009 0.254074
O5    O     O_R   0.083372 0.395054 0.289302 -0.299024
O6    O     O_R   0.965567 0.267815 0.229107 -0.349128
N20   N     N_R   0.744676 0.318033 0.487617 0.236039
O7    O     O_R   0.698943 0.235488 0.451259 -0.383098
O8    O     O_R   0.733777 0.358909 0.543905 -0.383544
C86   C     C_3   0.278692 0.870521 0.410793 -0.900882
H42   H     H_    0.316171 0.855924 0.381335 0.251009
H43   H     H_    0.222822 0.809843 0.394184 0.285447
H44   H     H_    0.257830 0.909966 0.388194 0.230908
N21   N     N_R   0.317437 0.746578 0.452145 0.251061
O9    O     O_R   0.257479 0.735091 0.473651 -0.364040
O10   O     O_R   0.309742 0.682295 0.398533 -0.330903
N22   N     N_R   0.858066 0.772909 0.222270 0.217706
O11   O     O_R   0.812025 0.751156 0.151533 -0.375395
O12   O     O_R   0.912406 0.746473 0.237426 -0.427231
N23   N     N_R   0.743212 0.877483 0.181180 0.248304
O13   O     O_R   0.757845 0.900014 0.129828 -0.345671
O14   O     O_R   0.783949 0.934257 0.252130 -0.401914
C87   C     C_3   0.608591 0.622529 0.228020 -0.890799
H45   H     H_    0.663834 0.612159 0.236961 0.257984
H46   H     H_    0.611881 0.657057 0.283969 0.234615
H47   H     H_    0.550983 0.559087 0.198367 0.257018
N24   N     N_R   0.195015 0.093506 0.834687 0.246689
O15   O     O_R   0.234841 0.174840 0.879143 -0.305573
O16   O     O_R   0.204970 0.066361 0.773443 -0.390350
N25   N     N_R   0.245561 0.107603 0.984843 0.259044
O17   O     O_R   0.314466 0.114728 0.979953 -0.329193
O18   O     O_R   0.249533 0.167642 0.039732 -0.349378
C88   C     C_3   0.188966 0.887438 0.134832 -0.932345
H48   H     H_    0.225292 0.876335 0.180265 0.257760
H49   H     H_    0.125624 0.830255 0.098608 0.261018
H50   H     H_    0.222969 0.896374 0.099253 0.250441
C89   C     C_3   0.974155 0.839671 0.892351 -0.909380
H51   H     H_    0.004504 0.839608 0.947485 0.252107
H52   H     H_    0.917481 0.845897 0.889158 0.254723
H53   H     H_    0.953970 0.777028 0.846669 0.250350

loop_
_geom_bond_atom_site_label_1
_geom_bond_atom_site_label_2
_geom_bond_distance
_ccdc_geom_bond_type
C49   C50   1.402217 A    
C3    N22   1.430372 S    
C55   C56   1.407016 A    
C43   C86   1.524791 S    
C22   C26   1.473564 S    
C62   H29   1.083516 S    
C37   H18   1.084101 S    
C4    C12   1.390628 A    
N23   O13   1.301393 A    
C21   C57   1.469225 S    
N21   O9    1.301624 A    
C43   C44   1.397764 A    
C71   C76   1.399161 A    
C13   C21   1.379621 A    
C68   H30   1.087793 S    
C71   C72   1.406177 A    
C17   N13   1.341813 A    
C56   H22   1.082578 S    
C19   N15   1.347316 A    
C83   H35   1.089318 S    
C2    C85   1.510083 S    
C77   N25   1.433708 S    
C74   C75   1.403646 A    
C29   C34   1.400961 A    
N11   Ni3   1.848921 S    
N8    Ni3   1.840960 S    
C16   H10   1.075260 S    
N21   O10   1.301555 A    
N6    Ni1   1.872460 S    
N3    Ni3   1.848008 S    
N18   O3    1.301193 A    
C36   C37   1.398401 A    
C85   H40   1.108594 S    
C41   C46   1.394105 A    
C2    C10   1.386357 A    
C3    C11   1.395848 A    
C13   N9    1.338560 A    
C5    C11   1.383343 A    
N17   O1    1.300888 A    
C17   C24   1.386072 A    
C57   C62   1.401652 A    
C12   C39   1.474204 S    
C1    H1    1.081961 S    
C64   C70   1.419743 A    
C51   C56   1.402060 A    
N4    Ni4   1.841265 S    
C66   C67   1.395959 A    
C60   C61   1.400556 A    
C32   N19   1.438001 S    
C58   H25   1.081853 S    
C18   C23   1.393088 A    
N5    Ni2   1.834131 S    
C45   C46   1.408648 A    
C35   C36   1.415803 A    
C20   H13   1.079107 S    
C63   C64   1.400578 A    
C8    C9    1.381517 A    
C24   C84   1.468408 S    
C46   C53   1.404037 A    
C53   H24   1.083559 S    
N19   O6    1.301289 A    
C80   C81   1.413945 A    
C76   H37   1.083090 S    
C63   H28   1.083468 S    
C10   C55   1.469554 S    
C65   C87   1.509518 S    
C69   H26   1.087640 S    
C50   C51   1.411826 A    
N7    Ni4   1.848918 S    
C15   C23   1.380883 A    
N24   O16   1.301411 A    
C45   C50   1.396858 A    
C26   C27   1.404435 A    
C64   N23   1.440355 S    
N22   O12   1.301024 A    
N23   O14   1.301444 A    
C61   H27   1.083605 S    
N22   O11   1.300255 A    
C58   C59   1.393952 A    
C18   N14   1.341401 A    
C68   C69   1.340646 D    
N1    Ni1   1.834407 S    
C87   H46   1.108502 S    
C54   H21   1.074056 S    
C7    H5    1.080691 S    
N18   O4    1.300786 A    
N9    Ni1   1.834131 S    
C7    C10   1.389344 A    
C34   C35   1.416201 A    
C36   N20   1.438999 S    
C57   C58   1.404236 A    
C72   H33   1.082417 S    
N12   N13   1.370775 A    
C20   N16   1.333163 A    
C16   C24   1.385991 A    
C85   H41   1.108629 S    
C80   C89   1.509870 S    
C17   H11   1.079656 S    
C60   C68   1.468423 S    
C48   C49   1.395926 A    
C4    H2    1.077680 S    
C9    C71   1.471008 S    
C78   N24   1.438410 S    
C35   C40   1.397429 A    
C47   C48   1.389403 A    
C41   C42   1.404063 A    
C27   C28   1.398659 A    
C1    N1    1.341472 A    
C88   H50   1.109339 S    
C28   C31   1.413234 A    
C33   C38   1.398934 A    
C41   H19   1.083618 S    
C29   C30   1.410754 A    
C82   H38   1.085335 S    
C86   H42   1.111102 S    
C30   C37   1.398142 A    
N3    N5    1.381945 A    
N16   Ni3   1.841265 S    
C75   C76   1.390714 A    
C86   H43   1.107527 S    
C15   H9    1.076022 S    
C86   H44   1.110315 S    
C67   C69   1.465788 S    
C6    C12   1.395188 A    
N11   N14   1.370777 A    
C3    N3    1.344782 A    
C48   H20   1.084277 S    
C65   C70   1.415518 A    
C89   H51   1.109114 S    
C77   C81   1.414635 A    
N24   O15   1.301317 A    
C8    N8    1.341629 A    
C19   C21   1.395418 A    
C1    C9    1.377724 A    
C51   C52   1.402955 A    
C73   C74   1.409275 A    
C47   N21   1.438492 S    
C6    N6    1.339624 A    
C42   C43   1.414830 A    
C18   H12   1.079835 S    
C89   H52   1.110268 S    
C79   C80   1.392634 A    
C59   H31   1.083188 S    
C52   H23   1.083433 S    
C59   C60   1.402849 A    
C87   H45   1.110592 S    
C25   H14   1.081542 S    
C20   C22   1.382901 A    
C77   C78   1.407602 A    
C14   C22   1.389094 A    
N10   Ni2   1.872460 S    
N14   Ni1   1.872953 S    
C25   C30   1.392915 A    
N17   O2    1.300873 A    
N20   O7    1.301482 A    
C31   N18   1.434503 S    
C73   C88   1.506114 S    
C63   C67   1.396707 A    
C78   C84   1.413201 A    
C39   C40   1.401762 A    
C38   H16   1.078767 S    
C5    H3    1.077479 S    
C87   H47   1.110831 S    
C82   C83   1.338732 D    
N2    N7    1.370775 A    
C44   C47   1.414232 A    
C61   C62   1.392740 A    
C27   H15   1.076318 S    
C23   C42   1.457571 S    
N9    N15   1.381947 A    
C31   C32   1.407611 A    
C79   C84   1.395649 A    
C89   H53   1.110779 S    
N20   O8    1.301451 A    
C25   C26   1.400320 A    
C38   C39   1.400022 A    
C79   H34   1.084422 S    
N4    N6    1.381793 A    
C85   H39   1.110367 S    
C66   H32   1.084516 S    
C14   N10   1.340585 A    
C5    N5    1.339106 A    
C15   N11   1.320887 A    
C52   C53   1.399272 A    
C14   H8    1.079977 S    
N12   Ni4   1.840962 S    
N15   Ni4   1.848009 S    
C16   N12   1.339522 A    
C54   C55   1.399901 A    
C7    N7    1.344875 A    
C33   C34   1.413355 A    
C11   C70   1.469904 S    
C32   C33   1.413064 A    
C28   C29   1.411364 A    
C88   H49   1.110411 S    
N10   N16   1.381791 A    
N25   O17   1.300940 A    
C2    N2    1.328686 A    
C8    H6    1.074849 S    
C74   C82   1.464657 S    
C4    N4    1.334963 A    
C44   C45   1.412895 A    
C75   H36   1.083775 S    
C65   C66   1.397062 A    
C13   H7    1.081732 S    
C19   N17   1.431680 S    
C81   C83   1.469445 S    
C40   H17   1.077498 S    
C6    H4    1.077943 S    
N2    Ni2   1.872954 S    
N1    N8    1.370778 A    
N19   O5    1.301199 A    
C49   C54   1.373897 A    
N13   Ni2   1.834407 S    
C88   H48   1.110581 S    
C72   C73   1.398469 A    
N25   O18   1.301070 A    
