data_mof_unit_pretest_501.cif
_audit_creation_date              2012-12-11T17:05:24-0500
_audit_creation_method            fapswitch 2.2
_symmetry_space_group_name_H-M    P1
_symmetry_Int_Tables_number       1
_space_group_crystal_system       triclinic
_cell_length_a                    7.139309
_cell_length_b                    14.607464
_cell_length_c                    16.093438
_cell_angle_alpha                 89.750199
_cell_angle_beta                  89.506619
_cell_angle_gamma                 90.398429
_cell_volume                      1678.22037815

loop_
_atom_site_label
_atom_site_type_symbol
_atom_type_description
_atom_site_fract_x
_atom_site_fract_y
_atom_site_fract_z
_atom_type_partial_charge
O1    O     O_R   0.494380 0.415640 0.412830 -0.535064
O2    O     O_R   0.823960 0.405540 0.586560 -0.524378
O3    O     O_R   0.994270 0.584360 0.587170 -0.530982
C1    C     C_R   0.653702 0.379705 0.611133 0.699481
O4    O     O_R   0.824090 0.404620 0.413450 -0.553055
O5    O     O_R   0.994400 0.583430 0.412820 -0.542174
C2    C     C_R   0.655421 0.381806 0.385708 0.682873
O6    O     O_R   0.494250 0.416570 0.587180 -0.550789
O7    O     O_3   0.660800 0.558670 0.500000 -0.372455
V1    V     V_3+5 0.935650 0.489120 0.500000 1.348859
O8    O     O_R   0.324110 0.594460 0.413440 -0.535065
C3    C     C_R   0.155216 0.615249 0.384398 0.698098
O9    O     O_R   0.323980 0.595380 0.586550 -0.545759
C4    C     C_R   0.154219 0.617390 0.614230 0.686427
V2    V     V_3+5 0.435660 0.510880 0.500000 1.337437
O10   O     O_3   0.160640 0.441330 0.500000 -0.395106
C5    C     C_3   0.968868 0.655655 0.747952 -0.030821
H1    H     H_    0.843459 0.658558 0.708876 0.165350
C6    C     C_3   0.941265 0.727779 0.822335 0.362248
C7    C     C_3   0.112590 0.784484 0.652620 -0.003861
C8    C     C_3   0.317526 0.684789 0.738746 -0.410394
C9    C     C_3   0.135652 0.684231 0.686926 -0.081282
H2    H     H_    0.438018 0.709935 0.700553 0.148482
H3    H     H_    0.355141 0.613167 0.754919 0.161659
C10   C     C_3   0.109961 0.803700 0.814540 -0.062643
C11   C     C_3   0.104206 0.857763 0.725862 0.295995
C12   C     C_3   0.296722 0.747306 0.816634 -0.066814
H4    H     H_    0.413300 0.796951 0.816317 0.175016
H5    H     H_    0.251226 0.795774 0.621870 0.097962
C13   C     C_R   0.267386 0.815840 0.239713 0.146253
C14   C     C_R   0.116387 0.817561 0.184929 -0.161798
C15   C     C_R   0.973806 0.752652 0.198460 -0.195907
H6    H     H_    0.856290 0.751355 0.157764 0.153767
C16   C     C_R   0.985022 0.685025 0.260624 0.206503
C17   C     C_R   0.139137 0.684264 0.316325 -0.140025
C18   C     C_R   0.276233 0.752344 0.305307 -0.042353
C19   C     C_3   0.478961 0.736125 0.291144 -0.381592
C20   C     C_3   0.469079 0.803021 0.218693 0.395054
H7    H     H_    0.500144 0.663887 0.272872 0.169116
H8    H     H_    0.565007 0.760238 0.344121 0.163631
C21   C     C_R   0.483500 0.299607 0.728314 0.018548
C22   C     C_R   0.641353 0.307450 0.676662 -0.148921
C23   C     C_R   0.791334 0.248215 0.693111 -0.132822
H9    H     H_    0.910816 0.247783 0.651816 0.197633
C24   C     C_R   0.784813 0.186182 0.760621 -0.171120
H10   H     H_    0.901928 0.140882 0.770124 0.131264
C25   C     C_R   0.624357 0.179192 0.812138 -0.096395
C26   C     C_R   0.475208 0.237251 0.794588 0.011538
C27   C     C_3   0.277072 0.210367 0.778884 -0.361069
C28   C     C_3   0.285782 0.275656 0.705358 0.390376
H11   H     H_    0.182675 0.232372 0.830253 0.159632
H12   H     H_    0.261879 0.137257 0.761561 0.159135
C29   C     C_R   0.486816 0.304796 0.266661 0.062026
C30   C     C_R   0.645496 0.313462 0.316326 -0.143232
C31   C     C_R   0.791678 0.252333 0.297999 -0.195772
H13   H     H_    0.910617 0.249859 0.337817 0.159572
C32   C     C_R   0.779537 0.189316 0.231312 -0.117041
H14   H     H_    0.887966 0.140448 0.220968 0.137720
C33   C     C_R   0.620664 0.182885 0.181154 -0.102351
C34   C     C_R   0.473029 0.240174 0.203044 -0.000775
C35   C     C_3   0.272050 0.219831 0.224502 0.275841
C36   C     C_3   0.282666 0.299645 0.288862 0.295695
O11   O     O_R   0.771490 0.080820 0.910070 -0.536668
O12   O     O_R   0.441590 0.092730 0.083780 -0.545598
O13   O     O_R   0.271350 0.913900 0.084390 -0.524631
C37   C     C_R   0.609814 0.114240 0.112426 0.688648
O14   O     O_R   0.441780 0.091820 0.910670 -0.538543
O15   O     O_R   0.271540 0.912980 0.910040 -0.545664
C38   C     C_R   0.611320 0.111755 0.881229 0.706772
O16   O     O_R   0.771300 0.081740 0.084420 -0.537231
O17   O     O_3   0.604960 0.938700 0.997240 -0.396123
V3    V     V_3+5 0.330090 0.008230 0.997220 1.356090
O18   O     O_R   0.941820 0.901930 0.910640 -0.545563
C39   C     C_R   0.109124 0.875920 0.885363 0.686846
O19   O     O_R   0.941630 0.902840 0.083750 -0.557705
C40   C     C_R   0.109337 0.883310 0.113833 0.706972
V4    V     V_3+5 0.830090 0.986410 0.997190 1.326506
O20   O     O_3   0.105080 0.055990 0.997200 -0.376551
C41   C     C_3   0.277273 0.926016 0.716291 -0.401904
C42   C     C_3   0.280586 0.986478 0.638155 -0.792618
H15   H     H_    0.279674 0.945458 0.580519 0.220761
H16   H     H_    0.162945 0.035629 0.638152 0.240950
H17   H     H_    0.413027 0.026742 0.637456 0.221773
H18   H     H_    0.283093 0.973380 0.769637 0.189624
H19   H     H_    0.411328 0.888345 0.714671 0.166316
N1    N     N_3   0.846280 0.613642 0.259993 -0.696867
H20   H     H_    0.912229 0.550324 0.255418 0.228626
H21   H     H_    0.770014 0.615160 0.315408 0.249230
N2    N     N_3   0.494028 0.761252 0.136131 -0.669340
H22   H     H_    0.578085 0.802853 0.098263 0.246767
H23   H     H_    0.559704 0.697771 0.140460 0.224507
N3    N     N_3   0.577371 0.887206 0.231334 -0.700830
H24   H     H_    0.718601 0.871425 0.237299 0.230102
H25   H     H_    0.564496 0.929466 0.179226 0.242566
C43   C     C_3   0.974590 0.551283 0.772307 -0.368613
C44   C     C_3   0.783269 0.502802 0.776866 -0.742351
H26   H     H_    0.703530 0.516927 0.834095 0.198820
H27   H     H_    0.696026 0.520607 0.722512 0.218780
H28   H     H_    0.806910 0.427962 0.777493 0.239926
H29   H     H_    0.050205 0.514683 0.723938 0.191982
H30   H     H_    0.056991 0.534967 0.827694 0.155654
N4    N     N_3   0.158465 0.352529 0.714176 -0.655542
H31   H     H_    0.189374 0.398905 0.666436 0.247887
H32   H     H_    0.185161 0.385403 0.770543 0.198333
N5    N     N_3   0.266307 0.229077 0.625082 -0.674253
H33   H     H_    0.377843 0.184147 0.616032 0.214915
H34   H     H_    0.274754 0.277380 0.577154 0.245608
C45   C     C_3   0.236342 0.121381 0.262976 -0.300243
C46   C     C_3   0.392924 0.078230 0.314789 -0.722108
H35   H     H_    0.504589 0.051069 0.274430 0.227951
H36   H     H_    0.456765 0.126698 0.358906 0.233357
H37   H     H_    0.334793 0.019423 0.350885 0.214708
H38   H     H_    0.113380 0.123989 0.305183 0.185046
H39   H     H_    0.201436 0.072135 0.212934 0.165051
N6    N     N_3   0.147795 0.238932 0.154060 -0.690761
H40   H     H_    0.200254 0.292582 0.117412 0.223060
H41   H     H_    0.143579 0.182236 0.114901 0.254626
N7    N     N_3   0.244505 0.266905 0.374616 -0.699202
H42   H     H_    0.153865 0.309807 0.406816 0.249912
H43   H     H_    0.364701 0.260617 0.410452 0.224500
C47   C     C_3   0.922404 0.675130 0.910923 -0.273632
C48   C     C_3   0.888059 0.726180 0.992171 -0.763925
H44   H     H_    0.019412 0.743617 0.023267 0.202094
H45   H     H_    0.805093 0.788192 0.986233 0.265586
H46   H     H_    0.812438 0.679415 0.035624 0.201652
H47   H     H_    0.821009 0.620853 0.907556 0.186391
H48   H     H_    0.020843 0.623361 0.928869 0.135657
C49   C     C_3   0.178154 0.391124 0.266930 -0.334007
C50   C     C_3   0.286355 0.458761 0.210286 -0.796203
H49   H     H_    0.409190 0.487252 0.243566 0.230434
H50   H     H_    0.335565 0.425779 0.152313 0.223620
H51   H     H_    0.195297 0.516685 0.192666 0.222652
H52   H     H_    0.040908 0.375937 0.238319 0.204072
H53   H     H_    0.146778 0.429278 0.324692 0.197599
N8    N     N_3   0.757663 0.770168 0.807989 -0.706811
H54   H     H_    0.730459 0.785822 0.746454 0.242844
H55   H     H_    0.725802 0.826749 0.843651 0.271474
C51   C     C_3   0.987461 0.799328 0.573499 -0.322567
C52   C     C_3   0.775388 0.783423 0.578692 -0.715295
H56   H     H_    0.738299 0.712570 0.596389 0.229807
H57   H     H_    0.716454 0.794092 0.515754 0.200471
H58   H     H_    0.704947 0.833539 0.619329 0.215959
H59   H     H_    0.009680 0.869864 0.549488 0.171429
H60   H     H_    0.041021 0.755279 0.522531 0.157830
N9    N     N_3   0.931938 0.912826 0.721940 -0.679695
H61   H     H_    0.917774 0.944793 0.664364 0.246692
H62   H     H_    0.937949 0.966170 0.764878 0.223801
C53   C     C_3   0.316095 0.689610 0.896373 -0.392676
C54   C     C_3   0.506033 0.677962 0.922232 -0.828584
H63   H     H_    0.570075 0.648656 0.866148 0.281991
H64   H     H_    0.554260 0.746681 0.939176 0.278078
H65   H     H_    0.514590 0.630245 0.976157 0.232032
H66   H     H_    0.251204 0.723241 0.949825 0.224971
H67   H     H_    0.275098 0.617731 0.885469 0.200621

loop_
_geom_bond_atom_site_label_1
_geom_bond_atom_site_label_2
_ccdc_geom_bond_type
C31   H13   S    
C43   C44   S    
C21   C22   A    
C17   C18   A    
O17   V4    S    
C1    O6    A    
C49   C50   S    
N9    H61   S    
C14   C40   S    
N8    H54   S    
C37   O16   A    
C24   H10   S    
N5    H34   S    
C20   N2    S    
O13   C40   A    
C1    C22   S    
C18   C19   S    
C47   H48   S    
C19   H8    S    
C51   H59   S    
C54   H64   S    
C33   C37   S    
O5    C3    A    
C41   H18   S    
C16   C17   A    
C52   H58   S    
N1    H21   S    
C32   C33   A    
O15   C39   A    
V2    O10   S    
C44   H28   S    
C20   N3    S    
C45   C46   S    
C13   C20   S    
C10   C39   S    
C16   N1    S    
C7    C51   S    
C35   C45   S    
N7    H42   S    
C25   C38   S    
V3    O20   S    
C46   H36   S    
O8    V2    S    
O11   C38   A    
C12   C53   S    
C27   H11   S    
C44   H27   S    
C35   N6    S    
C28   N5    S    
C5    C43   S    
N2    H23   S    
O7    V1    S    
C50   H51   S    
C8    C12   S    
C33   C34   A    
O1    C2    A    
C8    C9    S    
O16   V4    S    
C35   C36   S    
C53   H67   S    
C42   H17   S    
N9    H62   S    
C29   C34   A    
C7    H5    S    
C24   C25   A    
O18   C39   A    
O14   V3    S    
C53   C54   S    
C42   H16   S    
C46   H37   S    
O4    C2    A    
N1    H20   S    
N6    H41   S    
C10   C11   S    
V4    O20   S    
C34   C35   S    
O14   C38   A    
C15   C16   A    
C45   H38   S    
C11   N9    S    
O2    C1    A    
O19   C40   A    
C49   H52   S    
C19   C20   S    
C49   H53   S    
O19   V4    S    
C29   C36   S    
C25   C26   A    
O15   V3    S    
C27   H12   S    
C44   H26   S    
N3    H25   S    
C5    H1    S    
C31   C32   A    
C3    C17   S    
N4    H32   S    
C23   C24   A    
C47   C48   S    
O3    C4    A    
O1    V2    S    
C26   C27   S    
C7    C9    S    
C28   N4    S    
O6    V2    S    
C8    H2    S    
C23   H9    S    
C54   H65   S    
C53   H66   S    
C48   H45   S    
O2    V1    S    
C21   C28   S    
C41   H19   S    
C50   H49   S    
O11   V4    S    
N8    H55   S    
C30   C31   A    
C6    C47   S    
C43   H29   S    
C14   C15   A    
C11   C41   S    
C42   H15   S    
O5    V1    S    
C52   H56   S    
C29   C30   A    
C10   C12   S    
O13   V3    S    
N5    H33   S    
C5    C9    S    
C13   C18   A    
C45   H39   S    
C15   H6    S    
C4    C9    S    
C48   H46   S    
O9    V2    S    
O7    V2    S    
C47   H47   S    
C19   H7    S    
O3    V1    S    
V1    O10   S    
C54   H63   S    
C36   C49   S    
C52   H57   S    
C32   H14   S    
C13   C14   A    
C7    C11   S    
N3    H24   S    
C5    C6    S    
C21   C26   A    
O12   V3    S    
N4    H31   S    
C6    C10   S    
N7    H43   S    
C36   N7    S    
C51   C52   S    
C41   C42   S    
C43   H30   S    
O4    V1    S    
O17   V3    S    
C27   C28   S    
C22   C23   A    
C8    H3    S    
C46   H35   S    
C12   H4    S    
C48   H44   S    
O18   V4    S    
C51   H60   S    
C2    C30   S    
N2    H22   S    
O9    C4    A    
C6    N8    S    
N6    H40   S    
O8    C3    A    
O12   C37   A    
C50   H50   S    
