data_mof_unit_pretest_1978.cif
_audit_creation_date              2012-12-11T17:14:54-0500
_audit_creation_method            fapswitch 2.2
_symmetry_space_group_name_H-M    P1
_symmetry_Int_Tables_number       1
_space_group_crystal_system       triclinic
_cell_length_a                    7.295058
_cell_length_b                    12.441862
_cell_length_c                    20.897652
_cell_angle_alpha                 90.000383
_cell_angle_beta                  90.783729
_cell_angle_gamma                 90.0
_cell_volume                      1896.57923458

loop_
_atom_site_label
_atom_site_type_symbol
_atom_type_description
_atom_site_fract_x
_atom_site_fract_y
_atom_site_fract_z
_atom_type_partial_charge
O1    O     O_R   0.354460 0.152320 0.595720 -0.540449
O2    O     O_R   0.645540 0.847680 0.404280 -0.536335
O3    O     O_R   0.145540 0.652320 0.404280 -0.536335
O4    O     O_R   0.854460 0.347680 0.595720 -0.540449
O5    O     O_R   0.683670 0.140090 0.727290 -0.520129
O6    O     O_R   0.316330 0.859910 0.272710 -0.529602
O7    O     O_R   0.816330 0.640090 0.272710 -0.529602
O8    O     O_R   0.183670 0.359910 0.727290 -0.520131
O9    O     O_R   0.854010 0.349340 0.727750 -0.523639
O10   O     O_R   0.145990 0.650660 0.272250 -0.530501
O11   O     O_R   0.645990 0.849340 0.272250 -0.530502
O12   O     O_R   0.354010 0.150660 0.727750 -0.523643
C1    C     C_R   0.516078 0.108709 0.744688 0.728246
C2    C     C_R   0.483092 0.884032 0.251530 0.717848
C3    C     C_R   0.983092 0.615966 0.251530 0.717849
C4    C     C_R   0.016079 0.391291 0.744687 0.728250
O13   O     O_R   0.684170 0.139420 0.596190 -0.538458
O14   O     O_R   0.315830 0.860580 0.403810 -0.536562
O15   O     O_R   0.815830 0.639420 0.403810 -0.536562
O16   O     O_R   0.184170 0.360580 0.596190 -0.538457
C5    C     C_R   0.514911 0.113337 0.574562 0.685927
C6    C     C_R   0.485087 0.886640 0.425449 0.702147
C7    C     C_R   0.985087 0.613360 0.425449 0.702143
C8    C     C_R   0.014910 0.386663 0.574562 0.685923
O17   O     O_3   0.520730 0.319480 0.661730 -0.375386
O18   O     O_3   0.479270 0.680520 0.338270 -0.377910
O19   O     O_3   0.979270 0.819480 0.338270 -0.377909
O20   O     O_3   0.020730 0.180520 0.661730 -0.375389
V1    V     V_3+5 0.795560 0.238090 0.661730 1.531295
V2    V     V_3+5 0.204440 0.761910 0.338270 1.498547
V3    V     V_3+5 0.704440 0.738090 0.338270 1.498545
V4    V     V_3+5 0.295560 0.261910 0.661730 1.531293
C9    C     C_R   0.007930 0.481071 0.790417 -0.086753
C10   C     C_R   0.988676 0.544756 0.196368 -0.100530
C11   C     C_R   0.488674 0.955240 0.196368 -0.100527
C12   C     C_R   0.507921 0.018930 0.790417 -0.086751
C13   C     C_R   0.928805 0.665238 0.817114 0.383969
C14   C     C_R   0.052818 0.371739 0.151206 0.405237
C15   C     C_R   0.552801 0.128257 0.151207 0.405240
C16   C     C_R   0.428802 0.834761 0.817110 0.383979
C17   C     C_R   0.943920 0.581708 0.772116 -0.110138
C18   C     C_R   0.055650 0.441727 0.202994 -0.139616
C19   C     C_R   0.555636 0.058270 0.202996 -0.139616
C20   C     C_R   0.443912 0.918294 0.772114 -0.110141
C21   C     C_R   0.044474 0.462626 0.854277 -0.081339
C22   C     C_R   0.938063 0.583261 0.136303 -0.107185
C23   C     C_R   0.438069 0.916730 0.136303 -0.107185
C24   C     C_R   0.544457 0.037374 0.854277 -0.081336
C25   C     C_R   0.985201 0.534602 0.901518 0.055207
C26   C     C_R   0.969153 0.523768 0.080304 0.061440
C27   C     C_R   0.469145 0.976225 0.080304 0.061444
C28   C     C_R   0.485192 0.965394 0.901517 0.055208
C29   C     C_R   0.954150 0.643103 0.884619 -0.000019
C30   C     C_R   0.998193 0.410007 0.088839 -0.012504
C31   C     C_R   0.498179 0.089987 0.088840 -0.012504
C32   C     C_R   0.454145 0.856894 0.884616 -0.000012
C33   C     C_R   0.961254 0.497848 0.964869 -0.011055
C34   C     C_R   0.964273 0.570705 0.016699 0.025010
C35   C     C_R   0.464267 0.929288 0.016698 0.025012
C36   C     C_R   0.461247 0.002146 0.964869 -0.011055
C37   C     C_R   0.970434 0.684241 0.001054 0.156476
C38   C     C_R   0.921009 0.388491 0.976241 0.154385
C39   C     C_R   0.421003 0.111503 0.976242 0.154376
C40   C     C_R   0.470426 0.815752 0.001050 0.156471
C41   C     C_R   0.955327 0.719666 0.935617 0.165369
C42   C     C_R   0.958000 0.341658 0.036073 0.236179
C43   C     C_R   0.457993 0.158336 0.036075 0.236182
C44   C     C_R   0.455316 0.780329 0.935613 0.165372
H1    H     H_    0.865873 0.657667 0.135523 0.171764
H2    H     H_    0.100064 0.386154 0.867507 0.172841
H3    H     H_    0.600030 0.113849 0.867508 0.172835
H4    H     H_    0.365900 0.842318 0.135523 0.171761
H5    H     H_    0.100442 0.413878 0.249834 0.145638
H6    H     H_    0.913639 0.596525 0.721952 0.144421
H7    H     H_    0.413641 0.903479 0.721949 0.144416
H8    H     H_    0.600429 0.086119 0.249835 0.145638
C45   C     C_1   0.995648 0.533234 0.478069 -0.153191
C46   C     C_1   0.004347 0.466827 0.521966 -0.147813
C47   C     C_1   0.504347 0.033173 0.521966 -0.147816
C48   C     C_1   0.495648 0.966766 0.478069 -0.153195
I1    I     I_    0.965743 0.890497 0.917163 -0.278894
I2    I     I_    0.933335 0.169293 0.040888 -0.234770
I3    I     I_    0.433354 0.330704 0.040887 -0.234773
I4    I     I_    0.465687 0.609497 0.917157 -0.278893
Br1   Br    Br    0.866703 0.798421 0.775792 -0.507526
Br2   Br    Br    0.135388 0.230678 0.175661 -0.476662
Br3   Br    Br    0.635370 0.269318 0.175664 -0.476655
Br4   Br    Br    0.366763 0.701573 0.775780 -0.507515
I5    I     I_    0.018157 0.810556 0.070798 -0.368211
I6    I     I_    0.754295 0.304814 0.906719 -0.316767
I7    I     I_    0.254284 0.195182 0.906724 -0.316775
I8    I     I_    0.518153 0.689432 0.070791 -0.368214

loop_
_geom_bond_atom_site_label_1
_geom_bond_atom_site_label_2
_ccdc_geom_bond_type
C43   I3    S    
O3    V2    S    
C9    C21   A    
O3    C7    A    
C10   C18   A    
C15   Br3   S    
C11   C23   A    
C25   C33   A    
C33   C38   A    
C45   C46   T    
O1    C5    A    
C35   C40   A    
C26   C30   A    
C14   Br2   S    
C36   C39   A    
C40   C44   A    
C13   Br1   S    
O20   V1    S    
O9    C4    A    
C14   C18   A    
O10   C3    A    
O4    C8    A    
O11   C2    A    
C42   I2    S    
O13   V1    S    
C31   C43   A    
C22   H1    S    
C28   C36   A    
C17   H6    S    
C15   C31   A    
O16   C8    A    
C16   C32   A    
O2    C6    A    
C10   C22   A    
C11   C19   A    
C3    C10   S    
O5    C1    A    
O4    V1    S    
O9    V1    S    
C13   C29   A    
C34   C37   A    
O7    C3    A    
O15   V3    S    
C35   C36   A    
O8    C4    A    
O12   V4    S    
O19   V2    S    
C37   I5    S    
O5    V1    S    
C39   C43   A    
O7    V3    S    
C38   C42   A    
C44   I4    S    
C1    C12   S    
C2    C11   S    
C23   C27   A    
C32   C44   A    
O1    V4    S    
O13   C5    A    
O2    V3    S    
C26   C34   A    
C20   H7    S    
O15   C7    A    
C4    C9    S    
O6    C2    A    
O10   V2    S    
C41   I1    S    
C14   C30   A    
C21   C25   A    
C5    C47   S    
C7    C45   S    
O14   V2    S    
C8    C46   S    
O6    V2    S    
C16   C20   A    
C12   C20   A    
C27   C35   A    
C40   I8    S    
C24   H3    S    
C29   C41   A    
O16   V4    S    
C19   H8    S    
C18   H5    S    
C21   H2    S    
O14   C6    A    
O18   V3    S    
C15   C19   A    
C30   C42   A    
C22   C26   A    
C9    C17   A    
C16   Br4   S    
C6    C48   S    
C33   C34   A    
O8    V4    S    
O17   V4    S    
C25   C29   A    
C38   I6    S    
C12   C24   A    
C27   C31   A    
C13   C17   A    
C23   H4    S    
O11   V3    S    
C47   C48   T    
C37   C41   A    
C24   C28   A    
O12   C1    A    
C39   I7    S    
C28   C32   A    
