data_mof_unit_pretest_384.cif
_audit_creation_date              2013-03-05T15:39:57-0500
_audit_creation_method            fapswitch 2.2
_symmetry_space_group_name_H-M    P1
_symmetry_Int_Tables_number       1
_space_group_crystal_system       triclinic
_cell_length_a                    10.88063
_cell_length_b                    8.685422
_cell_length_c                    7.505275
_cell_angle_alpha                 102.717225
_cell_angle_beta                  95.266568
_cell_angle_gamma                 93.200525
_cell_volume                      686.83557817

loop_
_atom_site_label
_atom_site_type_symbol
_atom_site_description
_atom_site_fract_x
_atom_site_fract_y
_atom_site_fract_z
_atom_type_partial_charge
O1    O     O_R   0.508930 0.286130 0.619780 -0.605322
O2    O     O_R   0.485720 0.256780 0.308360 -0.581159
C1    C     C_R   0.492493 0.199984 0.453949 0.862871
O3    O     O_R   0.333540 0.514670 0.655670 -0.595850
O4    O     O_R   0.310330 0.485320 0.344250 -0.592755
C2    C     C_R   0.265576 0.502377 0.500754 0.808354
Cu1   Cu    Cu3+1 0.513740 0.517380 0.684380 1.083086
Cu2   Cu    Cu3+1 0.486260 0.482620 0.315620 1.044285
O5    O     O_R   0.514280 0.743220 0.691640 -0.546689
O6    O     O_R   0.491070 0.713870 0.380220 -0.551656
O7    O     O_R   0.689670 0.514680 0.655750 -0.519206
O8    O     O_R   0.666460 0.485330 0.344330 -0.564647
C3    C     C_R   0.503681 0.800096 0.546580 0.880031
C4    C     C_R   0.734003 0.490171 0.498542 0.773340
C5    C     C_2   0.922843 0.469024 0.351070 -0.216087
C6    C     C_2   0.862907 0.453588 0.495861 0.176941
H1    H     H_    0.874265 0.497558 0.231369 0.225473
C7    C     C_2   0.056286 0.459312 0.349535 -0.088836
C8    C     C_2   0.133825 0.511964 0.503024 -0.232267
H2    H     H_    0.090969 0.416201 0.217871 0.195830
H3    H     H_    0.100667 0.564246 0.633112 0.185612
C9    C     C_2   0.480564 0.032150 0.430403 -0.296930
H4    H     H_    0.446311 0.960928 0.295768 0.214451
C10   C     C_2   0.508946 0.968359 0.572636 -0.327709
H5    H     H_    0.538829 0.040158 0.709457 0.196040
N1    N     N_2   0.465540 0.456420 0.038510 -0.203855
H6    H     H_    0.411957 0.365913 0.948170 0.201070
N2    N     N_2   0.534460 0.543580 0.961490 0.027115
N3    N     N_R   0.918457 0.385535 0.639991 0.119606
O9    O     O_R   0.903051 0.443757 0.810960 -0.333398
O10   O     O_R   0.975364 0.256520 0.598818 -0.336382
N4    N     N_R   0.601358 0.675434 0.073163 0.296810
O11   O     O_R   0.563747 0.813738 0.067671 -0.363120
O12   O     O_R   0.718853 0.667549 0.116115 -0.335048

loop_
_geom_bond_atom_site_label_1
_geom_bond_atom_site_label_2
_geom_bond_distance
_ccdc_geom_bond_type
C5    C7    1.460041 S    
N3    O9    1.301385 A    
C4    C6    1.456251 S    
O4    Cu2   1.946612 S    
Cu2   N1    2.031735 S    
N1    N2    1.295540 D    
Cu2   O8    1.950985 S    
N4    O11   1.298350 A    
O2    C1    1.292022 A    
Cu1   Cu2   2.703798 S    
N3    O10   1.301786 A    
Cu1   O7    1.946612 S    
C2    C8    1.442027 S    
N1    H6    1.029156 S    
O3    Cu1   1.950984 S    
Cu2   O6    1.956209 S    
C8    H3    1.085065 S    
O8    C4    1.304002 A    
C7    H2    1.086471 S    
O4    C2    1.294300 A    
O7    C4    1.294411 A    
C9    C10   1.326975 D    
C5    C6    1.344859 D    
Cu1   O5    1.949909 S    
N2    N4    1.384238 S    
C10   H5    1.087754 S    
O3    C2    1.299525 A    
C7    C8    1.339603 D    
C5    H1    1.083224 S    
O5    C3    1.289468 A    
C9    H4    1.082836 S    
C1    C9    1.426273 S    
C6    N3    1.444366 S    
O1    Cu1   1.956209 S    
O2    Cu2   1.949910 S    
Cu1   N2    2.031735 S    
C3    C10   1.428319 S    
O1    C1    1.294237 A    
O6    C3    1.297699 A    
N4    O12   1.298775 A    
