data_mof_unit_pretest_1183.cif
_audit_creation_date              2012-12-11T16:48:37-0500
_audit_creation_method            fapswitch 2.2
_symmetry_space_group_name_H-M    P1
_symmetry_Int_Tables_number       1
_space_group_crystal_system       triclinic
_cell_length_a                    17.244945
_cell_length_b                    24.312052
_cell_length_c                    14.921445
_cell_angle_alpha                 89.974356
_cell_angle_beta                  125.410179
_cell_angle_gamma                 89.597952
_cell_volume                      5098.56336474

loop_
_atom_site_label
_atom_site_type_symbol
_atom_type_description
_atom_site_fract_x
_atom_site_fract_y
_atom_site_fract_z
_atom_type_partial_charge
C1    C     C_R   0.354665 0.347542 0.910456 -0.064992
C2    C     C_R   0.689901 0.376045 0.091248 -0.142174
C3    C     C_R   0.854665 0.847542 0.910456 -0.064991
C4    C     C_R   0.189901 0.876045 0.091248 -0.142173
C5    C     C_R   0.381269 0.683833 0.999708 0.079812
C6    C     C_R   0.687315 0.636169 0.998043 0.060217
C7    C     C_R   0.881269 0.183834 0.999708 0.079812
C8    C     C_R   0.187315 0.136169 0.998043 0.060217
C9    C     C_R   0.451899 0.498819 0.278164 0.056068
C10   C     C_R   0.433254 0.498696 0.632177 0.058514
C11   C     C_R   0.951899 0.998819 0.278164 0.056068
C12   C     C_R   0.933254 0.998696 0.632177 0.058513
C13   C     C_R   0.175507 0.500168 0.729584 -0.031410
C14   C     C_R   0.807375 0.499398 0.361880 -0.024161
C15   C     C_R   0.675507 0.000168 0.729584 -0.031410
C16   C     C_R   0.307375 0.999398 0.361880 -0.024160
C17   C     C_2   0.920386 0.461808 0.547687 -0.083388
C18   C     C_2   0.019068 0.458581 0.645502 -0.127470
C19   C     C_2   0.420386 0.961808 0.547687 -0.083389
C20   C     C_2   0.519068 0.958581 0.645502 -0.127470
C21   C     C_2   0.893473 0.501662 0.472556 -0.151511
C22   C     C_2   0.074311 0.503137 0.682357 -0.157149
C23   C     C_2   0.393472 0.001662 0.472557 -0.151510
C24   C     C_2   0.574311 0.003137 0.682357 -0.157149
C25   C     C_R   0.396250 0.769947 0.099532 0.144274
C26   C     C_R   0.723824 0.695281 0.893342 0.131089
C27   C     C_R   0.896250 0.269947 0.099532 0.144278
C28   C     C_R   0.223824 0.195281 0.893342 0.131088
C29   C     C_R   0.362563 0.742609 0.000952 0.028522
C30   C     C_R   0.755341 0.667089 0.991014 0.063928
C31   C     C_R   0.862563 0.242609 0.000952 0.028520
C32   C     C_R   0.255341 0.167089 0.991014 0.063930
C33   C     C_R   0.298677 0.771535 0.902422 -0.193842
C34   C     C_R   0.846217 0.679103 0.086159 -0.198712
C35   C     C_R   0.798677 0.271535 0.902422 -0.193842
C36   C     C_R   0.346216 0.179103 0.086159 -0.198713
C37   C     C_R   0.751160 0.318170 0.903491 -0.157905
C38   C     C_R   0.394184 0.225962 0.088196 -0.185941
C39   C     C_R   0.251160 0.818170 0.903492 -0.157905
C40   C     C_R   0.894184 0.725962 0.088196 -0.185941
C41   C     C_R   0.766725 0.335351 0.002913 -0.007295
C42   C     C_R   0.349904 0.260986 0.995841 0.040887
C43   C     C_R   0.266725 0.835351 0.002913 -0.007296
C44   C     C_R   0.849904 0.760986 0.995841 0.040888
C45   C     C_R   0.443169 0.651527 0.090483 -0.151252
C46   C     C_R   0.599446 0.620657 0.907935 -0.147411
C47   C     C_R   0.943169 0.151527 0.090483 -0.151252
C48   C     C_R   0.099446 0.120657 0.907935 -0.147412
C49   C     C_R   0.850374 0.316429 0.101106 0.133675
C50   C     C_R   0.267219 0.243303 0.898524 0.088653
C51   C     C_R   0.350373 0.816429 0.101107 0.133683
C52   C     C_R   0.767219 0.743303 0.898524 0.088654
C53   C     C_3   0.875807 0.301494 0.213436 -0.027291
C54   C     C_3   0.175028 0.271937 0.813955 0.012468
C55   C     C_3   0.375806 0.801493 0.213435 -0.027288
C56   C     C_3   0.675028 0.771937 0.813954 0.012468
C57   C     C_3   0.423524 0.749986 0.209003 -0.584595
C58   C     C_3   0.627353 0.717769 0.802717 -0.585594
C59   C     C_3   0.923525 0.249986 0.209003 -0.584585
C60   C     C_3   0.127353 0.217769 0.802717 -0.585592
C61   C     C_R   0.395332 0.447139 0.468234 -0.012153
C62   C     C_R   0.403000 0.447212 0.381265 -0.141634
C63   C     C_R   0.895332 0.947139 0.468234 -0.012151
C64   C     C_R   0.903000 0.947212 0.381265 -0.141635
C65   C     C_R   0.396184 0.496904 0.516008 0.050938
C66   C     C_R   0.407262 0.496845 0.336501 0.120405
C67   C     C_R   0.896184 0.996904 0.516008 0.050938
C68   C     C_R   0.907262 0.996845 0.336501 0.120405
C69   C     C_R   0.376793 0.545669 0.455156 -0.157124
C70   C     C_R   0.381753 0.545549 0.364737 -0.178820
C71   C     C_R   0.876793 0.045669 0.455156 -0.157124
C72   C     C_R   0.881753 0.045549 0.364737 -0.178820
C73   C     C_3   0.466469 0.397191 0.424249 0.460893
C74   C     C_3   0.456333 0.396555 0.517865 0.451844
C75   C     C_3   0.966469 0.897191 0.424249 0.460892
C76   C     C_3   0.956334 0.896555 0.517866 0.451844
C77   C     C_R   0.479273 0.453283 0.247032 0.019327
C78   C     C_R   0.448667 0.453581 0.696341 -0.170766
C79   C     C_R   0.979273 0.953283 0.247032 0.019328
C80   C     C_R   0.948667 0.953581 0.696341 -0.170766
C81   C     C_R   0.232214 0.545722 0.755039 -0.259348
C82   C     C_R   0.758052 0.545070 0.299727 -0.267097
C83   C     C_R   0.732214 0.045722 0.755039 -0.259347
C84   C     C_R   0.258051 0.045070 0.299727 -0.267098
C85   C     C_R   0.481570 0.545279 0.251413 -0.139257
C86   C     C_R   0.450288 0.544708 0.695652 -0.120626
C87   C     C_R   0.981570 0.045279 0.251413 -0.139258
C88   C     C_R   0.950288 0.044708 0.695652 -0.120626
C89   C     C_R   0.231892 0.454159 0.750765 0.701499
C90   C     C_R   0.756283 0.453864 0.301671 0.679913
C91   C     C_R   0.731892 0.954159 0.750765 0.701498
C92   C     C_R   0.256283 0.953864 0.301671 0.679914
C93   C     C_R   0.351148 0.651894 0.908269 -0.131813
C94   C     C_R   0.690339 0.624614 0.091476 -0.116598
C95   C     C_R   0.851148 0.151894 0.908269 -0.131813
C96   C     C_R   0.190339 0.124614 0.091476 -0.116598
C97   C     C_R   0.442310 0.347755 0.092497 -0.150383
C98   C     C_R   0.598142 0.374483 0.908041 -0.103886
C99   C     C_R   0.942310 0.847755 0.092497 -0.150383
C100  C     C_R   0.098142 0.874483 0.908041 -0.103886
C101  C     C_R   0.380179 0.316858 0.000975 0.023289
C102  C     C_R   0.688914 0.361865 0.000787 0.043820
C103  C     C_R   0.880179 0.816858 0.000975 0.023288
C104  C     C_R   0.188914 0.861865 0.000787 0.043820
H1    H     H_    0.321843 0.332128 0.828133 0.156191
H2    H     H_    0.748838 0.374407 0.175584 0.145890
H3    H     H_    0.821843 0.832128 0.828133 0.156191
H4    H     H_    0.248838 0.874407 0.175584 0.145890
H5    H     H_    0.938693 0.536369 0.488006 0.133525
H6    H     H_    0.042758 0.544053 0.662617 0.137115
H7    H     H_    0.438692 0.036369 0.488006 0.133525
H8    H     H_    0.542758 0.044053 0.662617 0.137115
H9    H     H_    0.275822 0.754896 0.823588 0.134632
H10   H     H_    0.875327 0.656179 0.161647 0.131073
H11   H     H_    0.775822 0.254895 0.823588 0.134632
H12   H     H_    0.375327 0.156179 0.161647 0.131074
H13   H     H_    0.693771 0.335216 0.825271 0.139290
H14   H     H_    0.460191 0.237338 0.164453 0.135753
H15   H     H_    0.193771 0.835216 0.825272 0.139290
H16   H     H_    0.960191 0.737338 0.164453 0.135753
H17   H     H_    0.813585 0.290509 0.213939 0.132753
H18   H     H_    0.170157 0.282579 0.738339 0.143953
H19   H     H_    0.313584 0.790508 0.213938 0.132752
H20   H     H_    0.670158 0.782579 0.738339 0.143953
H21   H     H_    0.501860 0.747889 0.271051 0.207371
H22   H     H_    0.574572 0.719775 0.822559 0.211717
H23   H     H_    0.001860 0.247889 0.271051 0.207369
H24   H     H_    0.074572 0.219776 0.822560 0.211717
H25   H     H_    0.385288 0.711991 0.203167 0.180775
H26   H     H_    0.599703 0.697202 0.723068 0.177127
H27   H     H_    0.885289 0.211992 0.203168 0.180772
H28   H     H_    0.099702 0.197202 0.723068 0.177127
H29   H     H_    0.369507 0.584775 0.484181 0.117270
H30   H     H_    0.377412 0.584495 0.326912 0.115586
H31   H     H_    0.869506 0.084775 0.484181 0.117270
H32   H     H_    0.877411 0.084495 0.326912 0.115587
H33   H     H_    0.435220 0.360980 0.369085 0.062921
H34   H     H_    0.524427 0.402601 0.599980 0.064400
H35   H     H_    0.935221 0.860980 0.369086 0.062921
H36   H     H_    0.024427 0.902601 0.599981 0.064401
H37   H     H_    0.493288 0.665268 0.173757 0.109744
H38   H     H_    0.574294 0.621569 0.822944 0.117983
H39   H     H_    0.993288 0.165268 0.173757 0.109744
H40   H     H_    0.074294 0.121569 0.822944 0.117983
H41   H     H_    0.464283 0.410845 0.250785 0.100035
H42   H     H_    0.425553 0.412073 0.668407 0.162371
H43   H     H_    0.964283 0.910845 0.250785 0.100034
H44   H     H_    0.925553 0.912073 0.668407 0.162371
H45   H     H_    0.210747 0.588239 0.747968 0.147651
H46   H     H_    0.770926 0.587103 0.328392 0.145059
H47   H     H_    0.710747 0.088239 0.747968 0.147650
H48   H     H_    0.270926 0.087103 0.328392 0.145059
H49   H     H_    0.471434 0.587868 0.263090 0.101277
H50   H     H_    0.431551 0.586740 0.666787 0.086663
H51   H     H_    0.971434 0.087868 0.263090 0.101277
H52   H     H_    0.931551 0.086740 0.666787 0.086663
H53   H     H_    0.314448 0.666219 0.824379 0.091783
H54   H     H_    0.748363 0.632004 0.175990 0.102247
H55   H     H_    0.814448 0.166219 0.824379 0.091783
H56   H     H_    0.248363 0.132004 0.175990 0.102247
H57   H     H_    0.486799 0.333354 0.176703 0.121079
H58   H     H_    0.571577 0.369646 0.822907 0.108020
H59   H     H_    0.986799 0.833354 0.176703 0.121079
H60   H     H_    0.071577 0.869646 0.822907 0.108020
H61   H     H_    0.875022 0.426900 0.530293 0.202587
H62   H     H_    0.048826 0.417689 0.673563 0.187969
H63   H     H_    0.375022 0.926900 0.530293 0.202587
H64   H     H_    0.548825 0.917689 0.673562 0.187968
N1    N     N_R   0.395410 0.396350 0.944340 -0.055574
N2    N     N_R   0.604590 0.396350 0.055660 -0.037803
N3    N     N_R   0.895410 0.896350 0.944340 -0.055574
N4    N     N_R   0.104590 0.896350 0.055660 -0.037803
N5    N     N_R   0.449930 0.602500 0.055880 -0.041152
N6    N     N_R   0.550070 0.602500 0.944120 -0.041461
N7    N     N_R   0.949930 0.102500 0.055880 -0.041152
N8    N     N_R   0.050070 0.102500 0.944120 -0.041461
N9    N     N_R   0.525080 0.471030 0.205650 -0.051434
N10   N     N_R   0.474920 0.471030 0.794350 -0.044542
N11   N     N_R   0.025080 0.971030 0.205650 -0.051434
N12   N     N_R   0.974920 0.971030 0.794350 -0.044542
N13   N     N_R   0.320260 0.527820 0.794570 -0.070633
N14   N     N_R   0.679740 0.527820 0.205430 -0.070671
N15   N     N_R   0.820260 0.027820 0.794570 -0.070633
N16   N     N_R   0.179740 0.027820 0.205430 -0.070671
N17   N     N_R   0.524590 0.527840 0.205200 -0.047288
N18   N     N_R   0.475410 0.527840 0.794800 -0.039543
N19   N     N_R   0.024590 0.027840 0.205200 -0.047288
N20   N     N_R   0.975410 0.027840 0.794800 -0.039543
N21   N     N_R   0.320750 0.471000 0.795020 -0.103826
N22   N     N_R   0.679250 0.471000 0.204980 -0.104989
N23   N     N_R   0.820750 0.971000 0.795020 -0.103826
N24   N     N_R   0.179250 0.971000 0.204980 -0.104988
N25   N     N_R   0.393620 0.602490 0.942710 -0.037178
N26   N     N_R   0.606380 0.602490 0.057290 -0.037241
N27   N     N_R   0.893620 0.102490 0.942710 -0.037178
N28   N     N_R   0.106380 0.102490 0.057290 -0.037241
N29   N     N_R   0.451720 0.396350 0.057510 -0.053743
N30   N     N_R   0.548280 0.396350 0.942490 -0.047820
N31   N     N_R   0.951720 0.896350 0.057510 -0.053743
N32   N     N_R   0.048280 0.896350 0.942490 -0.047820
Ni1   Ni    Ni4+2 0.435420 0.434270 0.870230 0.236593
Ni2   Ni    Ni4+2 0.564580 0.434270 0.129770 0.270605
Ni3   Ni    Ni4+2 0.935420 0.934270 0.870230 0.236593
Ni4   Ni    Ni4+2 0.064580 0.934270 0.129770 0.270605
Ni5   Ni    Ni4+2 0.563430 0.564580 0.128740 0.208415
Ni6   Ni    Ni4+2 0.436570 0.564580 0.871260 0.200740
Ni7   Ni    Ni4+2 0.063430 0.064580 0.128740 0.208416
Ni8   Ni    Ni4+2 0.936570 0.064580 0.871260 0.200740
C105  C     C_3   0.945290 0.341323 0.307350 -0.275426
C106  C     C_3   0.020549 0.367246 0.296914 -0.836065
H65   H     H_    0.064965 0.335303 0.293443 0.261797
H66   H     H_    0.986181 0.393587 0.222184 0.246260
H67   H     H_    0.067936 0.393529 0.369600 0.258331
H68   H     H_    0.904373 0.375238 0.311747 0.202933
H69   H     H_    0.981871 0.318732 0.386894 0.206679
C107  C     C_3   0.141764 0.319788 0.853765 -0.246865
C108  C     C_3   0.156093 0.311317 0.964554 -0.870687
H70   H     H_    0.121547 0.273383 0.965881 0.258178
H71   H     H_    0.232588 0.309895 0.033413 0.260804
H72   H     H_    0.123755 0.346661 0.979256 0.242003
H73   H     H_    0.178600 0.358057 0.859095 0.218058
H74   H     H_    0.064771 0.327226 0.789716 0.183777
C109  C     C_3   0.445289 0.841321 0.307351 -0.275433
C110  C     C_3   0.520543 0.867248 0.296912 -0.836072
H75   H     H_    0.564954 0.835307 0.293426 0.261799
H76   H     H_    0.486171 0.893594 0.222188 0.246260
H77   H     H_    0.567936 0.893527 0.369603 0.258334
H78   H     H_    0.404372 0.875234 0.311754 0.202940
H79   H     H_    0.481873 0.818728 0.386895 0.206679
C111  C     C_3   0.641764 0.819787 0.853765 -0.246866
C112  C     C_3   0.656093 0.811317 0.964553 -0.870686
H80   H     H_    0.621551 0.773382 0.965883 0.258178
H81   H     H_    0.732589 0.809897 0.033413 0.260803
H82   H     H_    0.623752 0.846660 0.979255 0.242002
H83   H     H_    0.678599 0.858057 0.859094 0.218058
H84   H     H_    0.564771 0.827225 0.789716 0.183776
F1    F     F_    0.559229 0.408603 0.461434 -0.698516
F2    F     F_    0.404268 0.351972 0.512447 -0.709536
F3    F     F_    0.059229 0.908603 0.461435 -0.698516
F4    F     F_    0.904269 0.851972 0.512448 -0.709536
F5    F     F_    0.202686 0.401591 0.723279 -0.777528
F6    F     F_    0.767283 0.402078 0.341357 -0.745904
F7    F     F_    0.702686 0.901591 0.723279 -0.777528
F8    F     F_    0.267283 0.902078 0.341357 -0.745905

loop_
_geom_bond_atom_site_label_1
_geom_bond_atom_site_label_2
_ccdc_geom_bond_type
C99   C103  A    
C42   C101  S    
C43   C104  S    
C29   C33   A    
C97   N29   A    
C94   N26   A    
C73   C74   S    
C75   F3    S    
C109  C110  S    
C8    C96   A    
C81   N13   A    
N12   Ni3   S    
C43   C51   A    
C110  H75   S    
C60   H28   S    
C25   C51   A    
C18   H62   S    
C46   H38   S    
C54   C60   S    
C108  H72   S    
C54   C107  S    
C74   H34   S    
C59   H27   S    
C33   C39   A    
N16   Ni7   S    
N23   Ni3   S    
C37   C41   A    
C95   H55   S    
C80   N12   A    
C14   C21   S    
N1    N29   A    
C35   C37   A    
C38   C42   A    
C26   C52   A    
C69   C70   A    
C64   C68   A    
C71   H31   S    
C81   H45   S    
C72   H32   S    
N11   N19   A    
C63   C76   S    
C2    C102  A    
C59   H23   S    
C13   C81   A    
C100  C104  A    
N9    N17   A    
C41   C102  S    
C48   H40   S    
C25   C29   A    
C57   H25   S    
C96   N28   A    
C41   C49   A    
N4    Ni4   S    
C9    C66   S    
C14   C90   A    
N3    N31   A    
N12   N20   A    
C9    C85   A    
C107  H73   S    
C52   C56   S    
N13   N21   A    
N20   Ni8   S    
N27   Ni8   S    
C20   C24   D    
C11   C87   A    
C22   H6    S    
C24   H8    S    
C69   H29   S    
N16   N24   A    
C62   C73   S    
C111  H84   S    
N7    Ni7   S    
C6    C46   A    
C5    C29   S    
N18   Ni6   S    
C13   C89   A    
C44   C52   A    
C76   H36   S    
C54   H18   S    
C94   H54   S    
C78   N10   A    
C45   H37   S    
N15   Ni8   S    
C61   C62   A    
C19   H63   S    
C10   C78   A    
C28   C32   A    
N7    N27   A    
C98   H58   S    
C44   C103  S    
C1    H1    S    
C17   C18   S    
C83   H47   S    
C28   C60   S    
C53   C59   S    
C20   H64   S    
C12   C67   S    
C63   C67   A    
C7    C31   S    
C30   C34   A    
C27   C31   A    
C25   C57   S    
N17   Ni5   S    
C84   N16   A    
C62   C66   A    
N14   N22   A    
C107  C108  S    
C47   H39   S    
C112  H81   S    
C28   C50   A    
C109  H78   S    
N22   Ni2   S    
C15   C83   A    
C5    C45   A    
C1    N1    A    
C51   C55   S    
N21   Ni1   S    
C108  H70   S    
C98   C102  A    
C91   N23   A    
C2    H2    S    
C16   C84   A    
C77   N9    A    
N15   N23   A    
C8    C32   S    
C74   F2    S    
C80   H44   S    
C19   C23   D    
C75   C76   S    
C8    C48   A    
C73   F1    S    
C109  H79   S    
C45   N5    A    
C86   N18   A    
C4    H4    S    
C15   C91   A    
C5    C93   A    
C49   C53   S    
C88   N20   A    
C68   C72   A    
C12   C88   A    
C17   H61   S    
N30   Ni1   S    
C46   N6    A    
C105  C106  S    
N24   Ni4   S    
C83   N15   A    
C111  H83   S    
C100  H60   S    
C85   H49   S    
N8    N28   A    
C93   H53   S    
C26   C58   S    
C82   H46   S    
C11   C79   A    
C42   C50   A    
C99   H59   S    
C100  N32   A    
C15   C24   S    
C96   H56   S    
C2    N2    A    
N6    N26   A    
C16   C23   S    
C106  H66   S    
C90   F6    S    
N5    N25   A    
N31   Ni4   S    
C89   F5    S    
N10   Ni1   S    
C16   C92   A    
C34   H10   S    
C14   C82   A    
C27   C59   S    
N19   Ni7   S    
C40   H16   S    
C110  H77   S    
C56   H20   S    
N1    Ni1   S    
N2    N30   A    
C23   H7    S    
C11   C68   S    
C55   C109  S    
C90   N22   A    
C10   C65   S    
C3    C103  A    
C65   C69   A    
N26   Ni5   S    
C10   C86   A    
C95   N27   A    
N25   Ni6   S    
C4    N4    A    
C85   N17   A    
C6    C30   S    
C18   C22   D    
C84   H48   S    
C93   N25   A    
C60   H24   S    
C91   F7    S    
C55   H19   S    
C110  H76   S    
C19   C20   S    
C87   N19   A    
C66   C70   A    
C32   C36   A    
C4    C104  A    
C58   H22   S    
C56   C111  S    
C87   H51   S    
C61   C74   S    
C108  H71   S    
C106  H67   S    
C7    C95   A    
C82   N14   A    
C33   H9    S    
C105  H68   S    
C105  H69   S    
N29   Ni2   S    
C76   F4    S    
N14   Ni5   S    
C3    H3    S    
N8    Ni8   S    
N28   Ni7   S    
C55   C57   S    
N13   Ni6   S    
C9    C77   A    
C71   C72   A    
C50   C54   S    
C75   H35   S    
C57   H21   S    
C92   F8    S    
C3    N3    A    
C98   N30   A    
C86   H50   S    
C77   H41   S    
C73   H33   S    
C58   H26   S    
N32   Ni3   S    
C39   H15   S    
N6    Ni6   S    
C12   C80   A    
C31   C35   A    
C36   C38   A    
C64   C75   S    
C56   C58   S    
C13   C22   S    
C79   H43   S    
C112  H82   S    
C67   C71   A    
C61   C65   A    
N3    Ni3   S    
C111  C112  S    
C17   C21   D    
N11   Ni4   S    
N2    Ni2   S    
C107  H74   S    
N4    N32   A    
C78   H42   S    
C47   N7    A    
C53   H17   S    
C63   C64   A    
N10   N18   A    
C27   C49   A    
C40   C44   A    
C79   N11   A    
C37   H13   S    
C35   H11   S    
C39   C43   A    
C53   C105  S    
C106  H65   S    
C6    C94   A    
C99   N31   A    
C112  H80   S    
C70   H30   S    
C89   N21   A    
N9    Ni2   S    
C34   C40   A    
C38   H14   S    
N5    Ni5   S    
C88   H52   S    
C1    C101  A    
C97   C101  A    
C92   N24   A    
C97   H57   S    
C7    C47   A    
C21   H5    S    
C48   N8    A    
C26   C30   A    
C36   H12   S    
