data_mof_unit_pretest_1777.cif
_audit_creation_date              2012-12-10T18:44:11-0500
_audit_creation_method            fapswitch 2.2
_symmetry_space_group_name_H-M    P1
_symmetry_Int_Tables_number       1
_space_group_crystal_system       triclinic
_cell_length_a                    18.100771
_cell_length_b                    18.134235
_cell_length_c                    22.110342
_cell_angle_alpha                 114.269967
_cell_angle_beta                  114.238831
_cell_angle_gamma                 89.952355
_cell_volume                      5908.51135283

loop_
_atom_site_label
_atom_site_type_symbol
_atom_type_description
_atom_site_fract_x
_atom_site_fract_y
_atom_site_fract_z
_atom_type_partial_charge
C1    C     C_R   0.349751 0.349761 0.699493 0.813547
C2    C     C_R   0.650249 0.650239 0.300507 0.813545
C3    C     C_3   0.564659 0.535376 0.566677 0.055285
C4    C     C_3   0.435341 0.464624 0.433323 0.055285
C5    C     C_3   0.019582 0.049832 0.975333 -0.165266
C6    C     C_3   0.980418 0.950168 0.024667 -0.165267
C7    C     C_3   0.974306 0.071062 0.024700 -0.161225
C8    C     C_3   0.025694 0.928938 0.975300 -0.161224
C9    C     C_1   0.110381 0.110555 0.221002 -0.136736
C10   C     C_1   0.889619 0.889445 0.778998 -0.136736
C11   C     C_3   0.082338 0.015930 0.024894 -0.157800
C12   C     C_3   0.917662 0.984070 0.975106 -0.157799
C13   C     C_3   0.036417 0.036514 0.072970 0.200130
C14   C     C_3   0.963583 0.963486 0.927030 0.200130
C15   C     C_1   0.076964 0.077136 0.154167 -0.080700
C16   C     C_1   0.923036 0.922864 0.845833 -0.080700
C17   C     C_3   0.039010 0.504150 0.568085 -0.180023
C18   C     C_3   0.960990 0.495850 0.431915 -0.180023
C19   C     C_3   0.944271 0.479372 0.518837 -0.175578
C20   C     C_3   0.055729 0.520628 0.481163 -0.175578
C21   C     C_3   0.949357 0.551312 0.500259 0.052767
C22   C     C_3   0.050643 0.448688 0.499740 0.052767
C23   C     C_R   0.150196 0.150286 0.300498 0.840672
C24   C     C_R   0.849804 0.849714 0.699502 0.840673
C25   C     C_3   0.043265 0.577030 0.549552 -0.133767
C26   C     C_3   0.956735 0.422970 0.450448 -0.133767
C27   C     C_3   0.573315 0.546857 0.024866 -0.163854
C28   C     C_3   0.426685 0.453143 0.975134 -0.163854
C29   C     C_3   0.547997 0.452212 0.975265 -0.164203
C30   C     C_3   0.452003 0.547787 0.024734 -0.164203
C31   C     C_1   0.389500 0.389566 0.778992 -0.146571
C32   C     C_1   0.610500 0.610434 0.221008 -0.146571
C33   C     C_3   0.488188 0.557557 0.975339 -0.160349
C34   C     C_3   0.511812 0.442443 0.024661 -0.160348
C35   C     C_3   0.463516 0.463557 0.927029 0.203339
C36   C     C_3   0.536484 0.536443 0.072971 0.203339
C37   C     C_1   0.422918 0.422989 0.845830 -0.088935
C38   C     C_1   0.577082 0.577010 0.154170 -0.088935
C39   C     C_3   0.055760 0.960463 0.481172 -0.181638
C40   C     C_3   0.944240 0.039537 0.518828 -0.181638
C41   C     C_3   0.961015 0.935966 0.431921 -0.179769
C42   C     C_3   0.038985 0.064034 0.568079 -0.179769
C43   C     C_3   0.949372 0.948964 0.500257 0.058665
C44   C     C_3   0.050628 0.051036 0.499743 0.058664
C45   C     C_R   0.391781 0.108303 0.499942 0.767362
C46   C     C_R   0.608219 0.891697 0.500058 0.767362
C47   C     C_3   0.043290 0.972573 0.549551 -0.131896
C48   C     C_3   0.956710 0.027427 0.450449 -0.131897
C49   C     C_3   0.529175 0.063995 0.568103 -0.181121
C50   C     C_3   0.470825 0.936005 0.431897 -0.181121
C51   C     C_3   0.574627 0.039516 0.518908 -0.182392
C52   C     C_3   0.425373 0.960484 0.481092 -0.182392
C53   C     C_3   0.550910 0.948945 0.500257 0.061372
C54   C     C_3   0.449090 0.051055 0.499743 0.061372
C55   C     C_3   0.506333 0.972528 0.549497 -0.131543
C56   C     C_3   0.493667 0.027471 0.450503 -0.131543
C57   C     C_R   0.108143 0.391656 0.499943 0.786566
C58   C     C_R   0.891857 0.608344 0.500057 0.786564
C59   C     C_R   0.108162 0.108277 0.499966 0.773529
C60   C     C_R   0.891838 0.891722 0.500034 0.773528
C61   C     C_R   0.391443 0.391720 0.499843 0.851217
C62   C     C_R   0.608556 0.608279 0.500156 0.851219
C63   C     C_3   0.474618 0.542460 0.551735 -0.220482
C64   C     C_3   0.525382 0.457540 0.448265 -0.220482
C65   C     C_3   0.461811 0.558392 0.484542 -0.273140
C66   C     C_3   0.538188 0.441608 0.515458 -0.273141
C67   C     C_3   0.551853 0.550999 0.500409 0.032609
C68   C     C_3   0.448147 0.449001 0.499591 0.032609
H1    H     H_    0.431129 0.606652 0.471496 0.141028
H2    H     H_    0.568871 0.393347 0.528504 0.141029
H3    H     H_    0.586950 0.412436 0.953937 0.131340
H4    H     H_    0.413050 0.587564 0.046063 0.131340
H5    H     H_    0.634074 0.585869 0.046302 0.131527
H6    H     H_    0.365925 0.414131 0.953698 0.131527
H7    H     H_    0.522019 0.395634 0.045928 0.133733
H8    H     H_    0.477981 0.604365 0.954072 0.133734
H9    H     H_    0.928024 0.882431 0.376131 0.131936
H10   H     H_    0.071975 0.117569 0.623869 0.131936
H11   H     H_    0.102504 0.929113 0.465735 0.130060
H12   H     H_    0.897496 0.070887 0.534265 0.130060
H13   H     H_    0.077999 0.949205 0.590238 0.145348
H14   H     H_    0.922001 0.050794 0.409762 0.145348
H15   H     H_    0.636848 0.070819 0.534404 0.130007
H16   H     H_    0.363152 0.929181 0.465596 0.130007
H17   H     H_    0.552011 0.117508 0.623901 0.131617
H18   H     H_    0.447989 0.882492 0.376099 0.131618
H19   H     H_    0.512387 0.949109 0.590133 0.146627
H20   H     H_    0.487613 0.050891 0.409867 0.146627
H21   H     H_    0.453639 0.576726 0.594418 0.156105
H22   H     H_    0.546361 0.423274 0.405581 0.156105
H23   H     H_    0.953685 0.129969 0.046000 0.134874
H24   H     H_    0.046315 0.870031 0.954000 0.134874
H25   H     H_    0.035182 0.090290 0.954060 0.132857
H26   H     H_    0.964818 0.909710 0.045940 0.132857
H27   H     H_    0.849486 0.970473 0.953643 0.136914
H28   H     H_    0.150514 0.029526 0.046356 0.136914
H29   H     H_    0.897533 0.463560 0.534276 0.138083
H30   H     H_    0.102466 0.536440 0.465724 0.138083
H31   H     H_    0.072044 0.506462 0.623864 0.133813
H32   H     H_    0.927956 0.493538 0.376136 0.133813
H33   H     H_    0.077921 0.641140 0.590232 0.146616
H34   H     H_    0.922079 0.358860 0.409768 0.146616
O1    O     O_3   0.250010 0.250010 0.500010 -0.482453
O2    O     O_3   0.749990 0.749990 0.499990 -0.482454
O3    O     O_R   0.376520 0.141930 0.456900 -0.654071
O4    O     O_R   0.623480 0.858070 0.543100 -0.654071
O5    O     O_R   0.184990 0.419580 0.543110 -0.639420
O6    O     O_R   0.815010 0.580420 0.456890 -0.639420
O7    O     O_R   0.332220 0.270690 0.664420 -0.637903
O8    O     O_R   0.667780 0.729310 0.335580 -0.637903
O9    O     O_R   0.106290 0.167820 0.335630 -0.642597
O10   O     O_R   0.893710 0.832180 0.664370 -0.642597
O11   O     O_R   0.332200 0.393690 0.664400 -0.642006
O12   O     O_R   0.667800 0.606310 0.335600 -0.642006
O13   O     O_R   0.229300 0.167820 0.335610 -0.618689
O14   O     O_R   0.770700 0.832180 0.664390 -0.618689
O15   O     O_R   0.358130 0.123520 0.543120 -0.642499
O16   O     O_R   0.641870 0.876480 0.456880 -0.642499
O17   O     O_R   0.080390 0.314990 0.456920 -0.647356
O18   O     O_R   0.919610 0.685010 0.543080 -0.647355
O19   O     O_R   0.185040 0.123520 0.543150 -0.641639
O20   O     O_R   0.814960 0.876480 0.456850 -0.641639
O21   O     O_R   0.358080 0.419590 0.543080 -0.658765
O22   O     O_R   0.641920 0.580410 0.456920 -0.658766
O23   O     O_R   0.080420 0.141920 0.456950 -0.650908
O24   O     O_R   0.919580 0.858080 0.543050 -0.650907
O25   O     O_R   0.376490 0.315000 0.456880 -0.612600
O26   O     O_R   0.623510 0.685000 0.543120 -0.612600
Zn1   Zn    Zn3+2 0.307090 0.219220 0.438420 0.997729
Zn2   Zn    Zn3+2 0.692910 0.780780 0.561580 0.997729
Zn3   Zn    Zn3+2 0.280820 0.192930 0.561610 0.958410
Zn4   Zn    Zn3+2 0.719180 0.807070 0.438390 0.958410
Zn5   Zn    Zn3+2 0.131340 0.219220 0.438450 0.968644
Zn6   Zn    Zn3+2 0.868660 0.780780 0.561550 0.968644
Zn7   Zn    Zn3+2 0.280790 0.368660 0.561580 0.970842
Zn8   Zn    Zn3+2 0.719210 0.631340 0.438420 0.970842
C69   C     C_2   0.636582 0.573450 0.642571 0.360121
H35   H     H_    0.636602 0.557338 0.684690 0.052868
O27   O     O_2   0.695141 0.622163 0.657465 -0.570271
C70   C     C_2   0.363418 0.426550 0.357429 0.360121
H36   H     H_    0.363398 0.442662 0.315310 0.052868
O28   O     O_2   0.304859 0.377837 0.342535 -0.570271

loop_
_geom_bond_atom_site_label_1
_geom_bond_atom_site_label_2
_ccdc_geom_bond_type
C11   H28   S    
C59   O19   A    
C66   C68   S    
C63   C65   S    
C27   C29   S    
C18   C21   S    
C11   C13   S    
C24   O10   A    
C64   H22   S    
C28   H6    S    
C22   C57   S    
C62   O22   A    
C19   H29   S    
C39   C41   S    
C27   C33   S    
C69   O27   D    
O17   Zn5   S    
O2    Zn6   S    
C62   C67   S    
C39   C47   S    
C35   C37   S    
C70   O28   D    
O6    Zn8   S    
C6    C12   S    
C4    C65   S    
C56   H20   S    
C65   C67   S    
C20   C25   S    
C44   C59   S    
O23   Zn5   S    
C49   C54   S    
C1    C31   S    
C46   O16   A    
C2    C32   S    
C51   C56   S    
C60   O24   A    
C52   H16   S    
C19   C26   S    
O1    Zn7   S    
O5    Zn7   S    
C1    O7    A    
C63   C68   S    
C40   C43   S    
C28   C35   S    
C45   O3    A    
C6    H26   S    
C18   C26   S    
O7    Zn3   S    
C50   C52   S    
C40   H12   S    
C12   H27   S    
O8    Zn4   S    
C8    H24   S    
C32   C38   T    
C18   C20   S    
C52   C55   S    
C34   H7    S    
C57   O17   A    
C40   C42   S    
C28   C34   S    
O2    Zn2   S    
C41   C43   S    
C4    C64   S    
C42   C44   S    
O19   Zn3   S    
O20   Zn4   S    
C52   C54   S    
C53   C55   S    
C7    C12   S    
C54   C56   S    
C50   C53   S    
O22   Zn8   S    
C64   C67   S    
C49   H17   S    
C70   H36   S    
O1    Zn5   S    
O10   Zn6   S    
C4    C68   S    
C9    C23   S    
C6    C8    S    
C49   C51   S    
C49   C55   S    
C29   C34   S    
C18   H32   S    
C50   C56   S    
C31   C37   T    
O21   Zn7   S    
C51   C53   S    
C39   H11   S    
O25   Zn1   S    
C4    C70   S    
O1    Zn1   S    
C33   H8    S    
C5    H25   S    
C7    H23   S    
C63   H21   S    
C58   O18   A    
C20   H30   S    
C61   O25   A    
C60   O20   A    
C17   H31   S    
C5    C14   S    
O11   Zn7   S    
C43   C60   S    
C3    C69   S    
C57   O5    A    
C12   C14   S    
C45   C54   S    
C24   O14   A    
C13   C15   S    
C5    C11   S    
C22   C26   S    
C14   C16   S    
C62   O26   A    
C3    C66   S    
C17   C19   S    
C51   H15   S    
C5    C7    S    
O13   Zn1   S    
C45   O15   A    
O4    Zn2   S    
C58   O6    A    
C21   C25   S    
C40   C48   S    
C2    O8    A    
C8    C14   S    
O2    Zn8   S    
C30   C33   S    
C19   C21   S    
C3    C67   S    
O9    Zn5   S    
C20   C22   S    
C30   H4    S    
O18   Zn6   S    
O26   Zn2   S    
O3    Zn1   S    
C42   H10   S    
C39   C44   S    
C3    C63   S    
C27   C36   S    
C59   O23   A    
C23   O9    A    
C69   H35   S    
C29   C35   S    
C17   C22   S    
C30   C36   S    
C61   O21   A    
C17   C25   S    
C36   C38   S    
C9    C15   T    
C21   C58   S    
C10   C16   T    
C26   H34   S    
C6    C13   S    
C41   H9    S    
C2    O12   A    
C61   C68   S    
C25   H33   S    
C66   H2    S    
C43   C47   S    
C8    C11   S    
C65   H1    S    
C46   O4    A    
C46   C53   S    
C28   C30   S    
C33   C35   S    
C41   C48   S    
C48   H14   S    
C34   C36   S    
C42   C47   S    
C47   H13   S    
C55   H19   S    
O15   Zn3   S    
O16   Zn4   S    
C1    O11   A    
C50   H18   S    
C23   O13   A    
C7    C13   S    
O14   Zn2   S    
O24   Zn6   S    
C10   C24   S    
O2    Zn4   S    
O12   Zn8   S    
C27   H5    S    
O1    Zn3   S    
C44   C48   S    
C64   C66   S    
C29   H3    S    
