data_mof_unit_pretest_277.cif
_audit_creation_date              2012-12-11T15:36:37-0500
_audit_creation_method            fapswitch 2.2
_symmetry_space_group_name_H-M    P1
_symmetry_Int_Tables_number       1
_space_group_crystal_system       triclinic
_cell_length_a                    15.052951
_cell_length_b                    15.048918
_cell_length_c                    34.780156
_cell_angle_alpha                 91.225431
_cell_angle_beta                  91.729521
_cell_angle_gamma                 60.133453
_cell_volume                      6829.07629407

loop_
_atom_site_label
_atom_site_type_symbol
_atom_type_description
_atom_site_fract_x
_atom_site_fract_y
_atom_site_fract_z
_atom_type_partial_charge
C1    C     C_R   0.610820 0.302423 0.444028 0.546882
C2    C     C_R   0.749860 0.683706 0.183429 -0.008294
C3    C     C_R   0.606639 0.149655 0.830451 0.077613
C4    C     C_R   0.691784 0.151504 0.846863 -0.086938
C5    C     C_R   0.724580 0.117191 0.884172 -0.127186
C6    C     C_R   0.566092 0.268199 0.775062 0.119340
C7    C     C_R   0.571388 0.279766 0.735508 -0.118688
C8    C     C_R   0.589656 0.199939 0.709728 -0.033253
C9    C     C_R   0.597777 0.109418 0.723393 -0.096190
C10   C     C_R   0.595915 0.094889 0.762821 0.139816
C11   C     C_R   0.582989 0.173207 0.789144 0.051819
C12   C     C_R   0.546502 0.194072 0.640153 -0.118798
C13   C     C_R   0.838104 0.628603 0.161906 -0.134966
C14   C     C_R   0.552639 0.215832 0.601805 -0.123335
C15   C     C_R   0.682494 0.260368 0.619868 -0.124664
C16   C     C_R   0.674969 0.240392 0.658228 -0.117689
C17   C     C_R   0.604746 0.210128 0.668752 0.031885
C18   C     C_R   0.618392 0.252276 0.591522 0.024664
C19   C     C_R   0.046893 0.738487 0.048169 0.568416
C20   C     C_R   0.747058 0.746187 0.064083 0.563319
C21   C     C_R   0.751569 0.039841 0.050901 0.538546
C22   C     C_R   0.017606 0.722313 0.939872 0.551275
C23   C     C_R   0.717174 0.730236 0.954809 0.545601
C24   C     C_R   0.834430 0.644590 0.122457 -0.155172
C25   C     C_R   0.721503 0.024381 0.941931 0.546430
C26   C     C_R   0.783825 0.578902 0.241962 -0.111709
C27   C     C_R   0.774583 0.572456 0.281424 -0.109622
C28   C     C_R   0.737095 0.660699 0.304854 0.027790
C29   C     C_R   0.714996 0.754200 0.288346 -0.115984
C30   C     C_R   0.722399 0.760873 0.248794 -0.118640
C31   C     C_R   0.754285 0.673784 0.225365 0.021101
C32   C     C_R   0.616322 0.736140 0.359203 -0.087908
C33   C     C_R   0.593570 0.610792 0.449428 0.547038
C34   C     C_R   0.579134 0.727033 0.394701 0.140342
C35   C     C_R   0.732729 0.559881 0.402661 -0.155712
C36   C     C_R   0.768674 0.570871 0.367723 -0.132700
C37   C     C_R   0.709075 0.657186 0.344996 0.001566
C38   C     C_R   0.636401 0.635130 0.415934 0.027628
C39   C     C_R   0.105780 0.728528 0.084089 0.033610
C40   C     C_R   0.170413 0.632184 0.101112 0.159122
C41   C     C_R   0.197192 0.627159 0.140108 -0.103931
C42   C     C_R   0.161806 0.716864 0.162265 0.009527
C43   C     C_R   0.107831 0.812330 0.144428 -0.104021
C44   C     C_R   0.302931 0.592020 0.442517 0.567489
C45   C     C_R   0.080574 0.818103 0.105552 -0.156629
C46   C     C_R   0.214694 0.757158 0.226926 0.148487
C47   C     C_R   0.217330 0.749749 0.267164 -0.103818
C48   C     C_R   0.176779 0.695239 0.285057 -0.002342
C49   C     C_R   0.129569 0.651620 0.262437 -0.136236
C50   C     C_R   0.126039 0.659056 0.222620 -0.151715
C51   C     C_R   0.169461 0.710298 0.204497 0.048263
C52   C     C_R   0.224937 0.576712 0.340339 -0.126340
C53   C     C_R   0.253158 0.553061 0.378758 -0.150254
C54   C     C_R   0.210015 0.729193 0.391793 0.157697
C55   C     C_R   0.605316 0.300928 0.553883 0.542118
C56   C     C_R   0.181924 0.752201 0.352985 -0.092738
C57   C     C_R   0.192315 0.675517 0.326817 -0.006513
C58   C     C_R   0.250353 0.627338 0.404699 0.032531
C59   C     C_R   0.727055 0.093306 0.088325 0.021449
C60   C     C_R   0.805687 0.092146 0.111501 -0.124825
C61   C     C_R   0.791571 0.113125 0.150804 -0.123434
C62   C     C_R   0.697976 0.137784 0.167239 0.024569
C63   C     C_R   0.616268 0.148733 0.143470 -0.100329
C64   C     C_R   0.630846 0.126121 0.104307 -0.102314
C65   C     C_R   0.603548 0.226406 0.226293 -0.122666
C66   C     C_R   0.588035 0.606590 0.559098 0.552947
C67   C     C_R   0.594015 0.231508 0.265995 -0.099566
C68   C     C_R   0.667424 0.152961 0.289461 0.064761
C69   C     C_R   0.751698 0.066532 0.272768 0.160874
C70   C     C_R   0.761421 0.063980 0.232463 -0.082558
C71   C     C_R   0.688007 0.143670 0.209341 -0.005106
C72   C     C_R   0.736991 0.182881 0.350473 -0.144200
C73   C     C_R   0.723940 0.219135 0.388201 -0.131886
C74   C     C_R   0.560423 0.224575 0.389400 -0.098323
C75   C     C_R   0.573560 0.187455 0.351587 0.155194
C76   C     C_R   0.660611 0.170244 0.331429 0.028739
C77   C     C_R   0.296981 0.589482 0.551448 0.545116
C78   C     C_R   0.633599 0.244407 0.407480 -0.011336
C79   C     C_R   0.691116 0.690715 0.919567 0.023284
C80   C     C_R   0.762766 0.595707 0.903754 -0.122954
C81   C     C_R   0.750045 0.570182 0.865929 -0.129315
C82   C     C_R   0.665722 0.639295 0.843302 0.029354
C83   C     C_R   0.590368 0.730692 0.860051 -0.091846
C84   C     C_R   0.602375 0.755701 0.897935 -0.119046
C85   C     C_R   0.573032 0.640937 0.780991 0.158192
C86   C     C_R   0.571284 0.643771 0.740416 -0.076658
C87   C     C_R   0.658270 0.625553 0.720367 0.001657
C88   C     C_R   0.742144 0.715452 0.103756 0.028416
C89   C     C_R   0.748663 0.602587 0.740497 -0.110749
C90   C     C_R   0.750907 0.602967 0.780514 -0.118969
C91   C     C_R   0.663474 0.623973 0.801139 0.040538
C92   C     C_R   0.712696 0.536328 0.657488 -0.139926
C93   C     C_R   0.696372 0.533181 0.617985 -0.161583
C94   C     C_R   0.569729 0.714784 0.618680 0.128916
C95   C     C_R   0.586752 0.716854 0.658535 -0.102977
C96   C     C_R   0.654637 0.626971 0.678130 0.001187
C97   C     C_R   0.621177 0.620626 0.598319 0.045971
C98   C     C_R   0.069665 0.697884 0.902970 0.028080
C99   C     C_R   0.651319 0.764859 0.125295 0.160676
C100  C     C_R   0.095362 0.766823 0.886986 -0.118194
C101  C     C_R   0.126413 0.754753 0.849081 -0.124841
C102  C     C_R   0.131989 0.673769 0.826630 0.026985
C103  C     C_R   0.113913 0.600431 0.843445 -0.117893
C104  C     C_R   0.083107 0.612294 0.881446 -0.120901
C105  C     C_R   0.210909 0.578013 0.766413 -0.130054
C106  C     C_R   0.219918 0.574866 0.726709 -0.120086
C107  C     C_R   0.164092 0.664462 0.704912 0.028040
C108  C     C_R   0.101448 0.757845 0.723541 -0.113179
C109  C     C_R   0.092992 0.761101 0.763356 -0.107564
C110  C     C_R   0.656433 0.749475 0.164920 -0.088710
C111  C     C_R   0.147099 0.671030 0.785012 0.021471
C112  C     C_R   0.188754 0.731891 0.643561 -0.122655
C113  C     C_R   0.218659 0.714843 0.605312 -0.128224
C114  C     C_R   0.209986 0.558319 0.604594 -0.121233
C115  C     C_R   0.178837 0.575963 0.642477 -0.120155
C116  C     C_R   0.174107 0.659406 0.662915 0.032218
C117  C     C_R   0.236512 0.624211 0.586537 0.025552
C118  C     C_R   0.673584 0.078995 0.905747 0.020462
C119  C     C_R   0.584306 0.083047 0.890173 -0.117987
C120  C     C_R   0.550695 0.118774 0.852732 -0.091280
Cr1   Cr    Cr6+3 0.426010 0.422500 0.497000 1.018858
Cr2   Cr    Cr6+3 0.651300 0.426310 0.501970 1.014676
Cr3   Cr    Cr6+3 0.422670 0.651170 0.501050 1.079321
Cr4   Cr    Cr6+3 0.905130 0.911420 0.992650 1.022255
Cr5   Cr    Cr6+3 0.911860 0.682710 0.002320 1.053730
Cr6   Cr    Cr6+3 0.682710 0.906840 0.004710 1.063987
H1    H     H_    0.910606 0.576584 0.175895 0.123044
H2    H     H_    0.779045 0.489798 0.418547 0.136427
H3    H     H_    0.031823 0.893109 0.093281 0.132949
H4    H     H_    0.153672 0.829695 0.343100 0.136532
H5    H     H_    0.255444 0.782424 0.284296 0.104498
H6    H     H_    0.241602 0.553015 0.153646 0.141221
H7    H     H_    0.096020 0.610931 0.275588 0.120414
H8    H     H_    0.905438 0.604985 0.107001 0.157610
H9    H     H_    0.088891 0.624829 0.205793 0.118341
H10   H     H_    0.234406 0.515795 0.320767 0.135285
H11   H     H_    0.283512 0.474303 0.387498 0.151706
H12   H     H_    0.079998 0.882366 0.161162 0.135664
H13   H     H_    0.880556 0.067235 0.099966 0.125497
H14   H     H_    0.568914 0.127791 0.087051 0.149231
H15   H     H_    0.530395 0.298640 0.278655 0.143540
H16   H     H_    0.546283 0.288385 0.208834 0.121347
H17   H     H_    0.841646 0.509891 0.357816 0.117503
H18   H     H_    0.855031 0.105835 0.168676 0.108949
H19   H     H_    0.824745 0.999682 0.218526 0.106995
H20   H     H_    0.804251 0.170247 0.335345 0.138552
H21   H     H_    0.782037 0.233018 0.401401 0.146801
H22   H     H_    0.543357 0.167953 0.155621 0.132745
H23   H     H_    0.490942 0.241941 0.403968 0.154581
H24   H     H_    0.831794 0.543923 0.919730 0.127173
H25   H     H_    0.545932 0.829689 0.909148 0.134882
H26   H     H_    0.544250 0.787898 0.674475 0.124447
H27   H     H_    0.791032 0.499595 0.293133 0.107641
H28   H     H_    0.503446 0.658258 0.723866 0.106648
H29   H     H_    0.808865 0.498985 0.853633 0.103717
H30   H     H_    0.816534 0.587392 0.725209 0.121903
H31   H     H_    0.820313 0.590533 0.795467 0.119931
H32   H     H_    0.766205 0.466478 0.672302 0.111996
H33   H     H_    0.738228 0.459996 0.603375 0.132259
H34   H     H_    0.525559 0.786132 0.843050 0.155049
H35   H     H_    0.087053 0.832707 0.903193 0.127388
H36   H     H_    0.808541 0.511113 0.224106 0.115271
H37   H     H_    0.063878 0.558002 0.893124 0.130460
H38   H     H_    0.164113 0.521124 0.656491 0.107034
H39   H     H_    0.271055 0.502316 0.713041 0.109932
H40   H     H_    0.253773 0.507872 0.782576 0.101311
H41   H     H_    0.142311 0.810834 0.836839 0.103738
H42   H     H_    0.057538 0.827693 0.707272 0.109272
H43   H     H_    0.041837 0.833497 0.777106 0.117082
H44   H     H_    0.183874 0.797860 0.658618 0.099453
H45   H     H_    0.233764 0.769124 0.591240 0.115555
H46   H     H_    0.117463 0.537465 0.826569 0.105304
H47   H     H_    0.587274 0.789450 0.181474 0.138005
H48   H     H_    0.220083 0.489146 0.590471 0.133312
H49   H     H_    0.543346 0.054319 0.906160 0.129081
H50   H     H_    0.793113 0.115939 0.895367 0.131828
H51   H     H_    0.721698 0.251659 0.679917 0.107103
H52   H     H_    0.562692 0.350874 0.724809 0.110424
H53   H     H_    0.483855 0.118287 0.840569 0.134184
H54   H     H_    0.611834 0.047509 0.703552 0.147185
H55   H     H_    0.492333 0.170176 0.647762 0.107056
H56   H     H_    0.688374 0.822929 0.305772 0.126411
H57   H     H_    0.502163 0.209262 0.580512 0.120412
H58   H     H_    0.735704 0.175392 0.830125 0.125965
H59   H     H_    0.733237 0.289059 0.612898 0.121315
H60   H     H_    0.700863 0.834433 0.236290 0.124625
H61   H     H_    0.571185 0.803126 0.341720 0.116814
O1    O     O_R   0.324990 0.503440 0.453910 -0.528223
O2    O     O_R   0.639980 0.519500 0.542640 -0.516810
O3    O     O_R   0.500750 0.673190 0.545480 -0.481529
O4    O     O_R   0.336260 0.640450 0.538210 -0.499426
O5    O     O_3   0.499990 0.499990 0.500010 -0.250877
O6    O     O_R   0.834210 0.019400 0.034570 -0.519052
O7    O     O_R   0.002210 0.824620 0.031030 -0.511550
O8    O     O_R   0.024400 0.669340 0.039790 -0.462924
O9    O     O_R   0.830490 0.694950 0.045870 -0.512947
O10   O     O_R   0.675430 0.831160 0.051290 -0.450948
O11   O     O_R   0.698870 0.998880 0.039560 -0.493560
O12   O     O_R   0.522030 0.339050 0.458320 -0.503680
O13   O     O_R   0.811290 0.006780 0.950620 -0.516520
O14   O     O_R   0.980960 0.812920 0.953200 -0.501908
O15   O     O_R   0.001480 0.656720 0.955830 -0.508261
O16   O     O_R   0.809240 0.683250 0.968050 -0.502665
O17   O     O_R   0.652500 0.818540 0.967340 -0.509337
O18   O     O_R   0.677620 0.987170 0.961730 -0.500187
O19   O     O_3   0.833240 0.833660 0.999890 -0.254651
O20   O     O_R   0.676180 0.324490 0.458320 -0.511180
O21   O     O_R   0.643570 0.521510 0.464260 -0.511419
O22   O     O_R   0.504630 0.675350 0.460920 -0.471467
O23   O     O_R   0.339850 0.642450 0.459830 -0.441510
O24   O     O_R   0.321120 0.501280 0.538470 -0.520159
O25   O     O_R   0.518440 0.337050 0.536710 -0.499849
O26   O     O_R   0.672300 0.322330 0.542880 -0.516753
Br1   Br    Br    0.517697 0.853598 0.103180 -0.499955
N1    N     N_2   0.485238 0.808415 0.409278 -0.480843
H62   H     H_    0.493201 0.838836 0.435142 0.265914
C121  C     C_3   0.408737 0.882366 0.383116 -0.273710
H63   H     H_    0.335740 0.928020 0.398453 0.190636
H64   H     H_    0.394419 0.842685 0.358434 0.159041
H65   H     H_    0.433577 0.935753 0.372794 0.152479
Br2   Br    Br    0.221265 0.505081 0.073266 -0.499099
N2    N     N_2   0.259201 0.809853 0.209327 -0.523408
H66   H     H_    0.256691 0.868567 0.226001 0.249418
C122  C     C_3   0.360217 0.743612 0.194334 -0.281246
H67   H     H_    0.387132 0.790577 0.179764 0.175512
H68   H     H_    0.358626 0.688496 0.172974 0.175206
H69   H     H_    0.415165 0.700759 0.218141 0.136022
Br3   Br    Br    0.190889 0.840340 0.425217 -0.526497
Br4   Br    Br    0.469785 0.163935 0.328309 -0.577712
N3    N     N_2   0.825077 0.985297 0.296885 -0.525441
H70   H     H_    0.797262 0.976170 0.322352 0.266853
C123  C     C_3   0.901441 0.889766 0.279854 -0.305255
H71   H     H_    0.948908 0.835726 0.302981 0.157621
H72   H     H_    0.953484 0.902791 0.261824 0.158170
H73   H     H_    0.863922 0.854307 0.262498 0.146629
N4    N     N_2   0.486436 0.654555 0.801982 -0.535774
H74   H     H_    0.504151 0.614481 0.827388 0.255163
C124  C     C_3   0.397368 0.662466 0.781701 -0.314015
H75   H     H_    0.338982 0.673013 0.802818 0.150680
H76   H     H_    0.418623 0.591409 0.764812 0.142927
H77   H     H_    0.362450 0.730308 0.762612 0.158369
N5    N     N_2   0.500286 0.807056 0.599461 -0.495399
H78   H     H_    0.519831 0.863394 0.603224 0.245242
C125  C     C_3   0.393790 0.844593 0.607689 -0.287219
H79   H     H_    0.377414 0.872957 0.637849 0.115640
H80   H     H_    0.375137 0.782540 0.603267 0.170692
H81   H     H_    0.344509 0.908516 0.587983 0.148248
N6    N     N_2   0.551832 0.349531 0.800630 -0.530219
H82   H     H_    0.565574 0.404491 0.789518 0.251353
C126  C     C_3   0.464278 0.390268 0.825513 -0.298297
H83   H     H_    0.412512 0.472945 0.819635 0.130846
H84   H     H_    0.491399 0.381937 0.855942 0.166985
H85   H     H_    0.419412 0.350190 0.821335 0.143986
Br5   Br    Br    0.624125 0.961774 0.779022 -0.564629

loop_
_geom_bond_atom_site_label_1
_geom_bond_atom_site_label_2
_ccdc_geom_bond_type
C27   H27   S    
C15   C18   A    
Cr3   O23   S    
C33   O21   A    
C19   O8    A    
C101  C102  A    
C22   C98   S    
C85   N4    S    
C41   C42   A    
C14   C18   A    
C95   C96   A    
C112  C116  A    
C21   O11   A    
C72   C76   A    
C122  H67   S    
Cr1   O5    S    
C14   H57   S    
C85   C91   A    
C7    C8    A    
C113  H45   S    
C85   C86   A    
N4    H74   S    
C121  H65   S    
C80   H24   S    
C15   H59   S    
C124  H77   S    
C59   C64   A    
C62   C63   A    
C73   H21   S    
C53   H11   S    
C108  H42   S    
C30   H60   S    
C66   C97   S    
C6    N6    S    
C28   C29   A    
C120  H53   S    
C21   C59   S    
C77   C117  S    
C34   N1    S    
C109  C111  A    
C54   C58   A    
C79   C84   A    
C80   C81   A    
C98   C104  A    
C106  C107  A    
Cr5   O8    S    
Cr6   O18   S    
C126  H84   S    
C15   C16   A    
N4    C124  S    
C66   O2    A    
C66   O3    A    
Cr5   O19   S    
C92   C96   A    
C108  C109  A    
C43   H12   S    
C92   H32   S    
C119  C120  A    
Cr1   O25   S    
C122  H68   S    
C115  H38   S    
C75   Br4   S    
C2    C13   A    
C118  C119  A    
Cr1   O12   S    
Cr4   O7    S    
C119  H49   S    
C55   O25   A    
C46   C47   A    
C33   O22   A    
C2    C110  A    
C83   H34   S    
C35   C36   A    
C44   C58   S    
C16   C17   A    
C65   C67   A    
C12   C17   A    
C47   C48   A    
N5    C125  S    
C107  C108  A    
C74   H23   S    
C100  H35   S    
C103  C104  A    
C125  H79   S    
C74   C78   A    
C22   O14   A    
C42   C51   S    
C39   C45   A    
Cr6   O11   S    
C126  H85   S    
C81   H29   S    
C105  H40   S    
C105  C111  A    
C59   C60   A    
C12   H55   S    
C10   Br5   S    
C25   C118  S    
C1    C78   S    
C102  C111  S    
C1    O12   A    
C23   C79   S    
C104  H37   S    
C25   O18   A    
N6    H82   S    
C9    C10   A    
C112  C113  A    
C109  H43   S    
C114  C115  A    
C124  H76   S    
C114  C117  A    
C107  C116  S    
C54   C56   A    
Cr5   O15   S    
C29   H56   S    
C22   O15   A    
C52   C57   A    
C102  C103  A    
C77   O4    A    
C106  H39   S    
Cr2   O21   S    
C48   C57   S    
C35   C38   A    
C3    C11   S    
C79   C80   A    
C74   C75   A    
C89   C90   A    
C39   C40   A    
C40   C41   A    
C86   C87   A    
C68   C69   A    
C89   H30   S    
C94   C97   A    
Cr6   O17   S    
C121  H63   S    
C65   C71   A    
C99   C110  A    
C46   C51   A    
C26   H36   S    
C123  H73   S    
C81   C82   A    
C82   C91   S    
C67   C68   A    
C7    H52   S    
C47   H5    S    
C60   C61   A    
C32   C34   A    
Cr4   O6    S    
N2    C122  S    
C75   C76   A    
C29   C30   A    
C43   C45   A    
C61   H18   S    
C83   C84   A    
C114  H48   S    
C73   C78   A    
C87   C96   S    
C123  H72   S    
N5    H78   S    
C8    C9    A    
Cr4   O14   S    
C94   C95   A    
C50   C51   A    
C70   H19   S    
C32   C37   A    
C4    H58   S    
Cr3   O3    S    
N3    C123  S    
C24   C88   A    
C54   Br3   S    
C16   H51   S    
C70   C71   A    
C9    H54   S    
C19   C39   S    
C18   C55   S    
C44   O1    A    
C113  C117  A    
Cr6   O10   S    
C48   C49   A    
C12   C14   A    
C49   C50   A    
C98   C100  A    
C87   C89   A    
C26   C27   A    
C103  H46   S    
C52   H10   S    
C5    H50   S    
C68   C76   S    
C42   C43   A    
Cr3   O4    S    
C3    C4    A    
C67   H15   S    
C122  H69   S    
C93   C97   A    
C63   H22   S    
C6    C11   A    
C52   C53   A    
Cr2   O2    S    
C64   H14   S    
C110  H47   S    
C24   H8    S    
C3    C120  A    
C56   C57   A    
C49   H7    S    
C124  H75   S    
C36   C37   A    
C32   H61   S    
Cr4   O19   S    
C34   C38   A    
C5    C118  A    
C26   C31   A    
Cr2   O20   S    
C36   H17   S    
C33   C38   S    
C72   C73   A    
C46   N2    S    
C55   O26   A    
C41   H6    S    
C53   C58   A    
C125  H81   S    
Cr2   O5    S    
C6    C7    A    
C99   Br1   S    
C121  H64   S    
C101  H41   S    
C105  C106  A    
Cr4   O13   S    
C8    C17   S    
Cr5   O9    S    
Cr2   O26   S    
C23   O17   A    
C50   H9    S    
C112  H44   S    
C90   H31   S    
N1    C121  S    
N6    C126  S    
C94   N5    S    
C40   Br2   S    
N3    H70   S    
C25   O13   A    
C69   N3    S    
Cr1   O1    S    
C65   H16   S    
C90   C91   A    
C30   C31   A    
C28   C37   S    
Cr6   O19   S    
C72   H20   S    
C45   H3    S    
Cr3   O22   S    
C92   C93   A    
C125  H80   S    
C62   C71   S    
C44   O23   A    
Cr1   O24   S    
N1    H62   S    
C86   H28   S    
C61   C62   A    
C1    O20   A    
C69   C70   A    
C20   O10   A    
C126  H83   S    
C88   C99   A    
Cr5   O16   S    
C10   C11   A    
C77   O24   A    
C60   H13   S    
C63   C64   A    
C13   H1    S    
C84   H25   S    
C4    C5    A    
C13   C24   A    
C19   O7    A    
C93   H33   S    
C82   C83   A    
C20   C88   S    
C23   O16   A    
C35   H2    S    
C2    C31   S    
C100  C101  A    
C95   H26   S    
C21   O6    A    
Cr3   O5    S    
N2    H66   S    
C20   O9    A    
C56   H4    S    
C115  C116  A    
C123  H71   S    
C27   C28   A    
