data_mof_unit_pretest_383.cif
_audit_creation_date              2012-12-10T16:50:17-0500
_audit_creation_method            fapswitch 2.2
_symmetry_space_group_name_H-M    P1
_symmetry_Int_Tables_number       1
_space_group_crystal_system       triclinic
_cell_length_a                    23.523056
_cell_length_b                    8.680222
_cell_length_c                    7.456776
_cell_angle_alpha                 103.31218
_cell_angle_beta                  94.089105
_cell_angle_gamma                 92.780361
_cell_volume                      1474.57138166

loop_
_atom_site_label
_atom_site_type_symbol
_atom_type_description
_atom_site_fract_x
_atom_site_fract_y
_atom_site_fract_z
_atom_type_partial_charge
C1    C     C_R   0.498254 0.199577 0.452939 0.845429
C2    C     C_R   0.501746 0.800423 0.547060 0.845431
C3    C     C_R   0.244131 0.574658 0.673641 -0.091761
C4    C     C_R   0.755869 0.425327 0.326359 -0.091758
C5    C     C_R   0.303481 0.584691 0.672373 0.396290
C6    C     C_R   0.696518 0.415296 0.327628 0.396288
C7    C     C_R   0.328810 0.509959 0.509900 -0.145657
C8    C     C_R   0.671190 0.490037 0.490100 -0.145658
C9    C     C_R   0.293411 0.435551 0.350480 -0.219483
C10   C     C_R   0.706589 0.564450 0.649517 -0.219480
C11   C     C_R   0.234269 0.432073 0.352074 -0.094410
C12   C     C_R   0.765731 0.567926 0.647923 -0.094408
C13   C     C_R   0.209388 0.500654 0.513809 0.248722
C14   C     C_R   0.790612 0.499337 0.486190 0.248720
C15   C     C_2   0.497462 0.031393 0.426734 -0.323331
C16   C     C_2   0.502538 0.968607 0.573266 -0.323331
C17   C     C_R   0.391164 0.504234 0.503428 0.773580
C18   C     C_R   0.608836 0.495765 0.496572 0.773577
C19   C     C_R   0.883437 0.640570 0.521218 0.580272
C20   C     C_R   0.116563 0.359421 0.478776 0.580272
C21   C     C_R   0.876703 0.357348 0.454817 0.548960
C22   C     C_R   0.123297 0.642643 0.545182 0.548964
C23   C     C_R   0.936434 0.353139 0.448212 -0.108110
C24   C     C_R   0.063566 0.646852 0.551783 -0.108107
C25   C     C_R   0.969869 0.499057 0.494753 -0.064973
C26   C     C_R   0.030131 0.500934 0.505241 -0.064975
C27   C     C_R   0.943145 0.643419 0.530895 -0.088951
C28   C     C_R   0.056854 0.356571 0.469098 -0.088953
C29   C     C_R   0.964175 0.209032 0.403223 0.395165
C30   C     C_R   0.035825 0.790959 0.596769 0.395162
C31   C     C_R   0.023618 0.212456 0.420124 -0.112030
C32   C     C_R   0.976382 0.787535 0.579868 -0.112033
Cu1   Cu    Cu3+1 0.506340 0.517380 0.684380 1.136060
Cu2   Cu    Cu3+1 0.493660 0.482620 0.315620 1.136059
H1    H     H_    0.043675 0.100787 0.386799 0.231139
H2    H     H_    0.956325 0.899204 0.613191 0.231139
H3    H     H_    0.224740 0.629732 0.798014 0.168401
H4    H     H_    0.775259 0.370248 0.201988 0.168403
H5    H     H_    0.311475 0.378514 0.224324 0.205986
H6    H     H_    0.688525 0.621493 0.775672 0.205983
H7    H     H_    0.207672 0.376007 0.227297 0.168351
H8    H     H_    0.792328 0.623996 0.772698 0.168352
H9    H     H_    0.492712 0.958975 0.285895 0.203548
H10   H     H_    0.507288 0.041025 0.714105 0.203548
N1    N     N_R   0.851631 0.499215 0.486089 -0.459960
N2    N     N_R   0.148369 0.500776 0.513908 -0.459962
N3    N     N_2   0.484110 0.456420 0.038520 0.236812
N4    N     N_2   0.515890 0.543580 0.961480 0.236812
O1    O     O_R   0.504120 0.286130 0.619770 -0.545414
O2    O     O_R   0.495880 0.713870 0.380230 -0.545414
O3    O     O_R   0.493410 0.256770 0.308360 -0.583055
O4    O     O_R   0.506590 0.743230 0.691640 -0.583054
O5    O     O_R   0.423230 0.514630 0.655730 -0.535685
O6    O     O_R   0.576770 0.485370 0.344270 -0.535687
O7    O     O_R   0.412530 0.485280 0.344320 -0.561442
O8    O     O_R   0.587470 0.514720 0.655680 -0.561441
O9    O     O_2   0.857259 0.778052 0.547580 -0.492911
O10   O     O_2   0.142741 0.221938 0.452412 -0.492910
O11   O     O_2   0.843886 0.222035 0.437344 -0.489397
O12   O     O_2   0.156114 0.777957 0.562662 -0.489395
O13   O     O_3   0.935137 0.063106 0.336802 -0.685296
H11   H     H_    0.905724 0.074836 0.239790 0.361164
O14   O     O_3   0.064863 0.936885 0.663187 -0.685295
H12   H     H_    0.094273 0.925159 0.760207 0.361163
O15   O     O_3   0.334568 0.671686 0.829913 -0.688666
H13   H     H_    0.368183 0.725654 0.792236 0.332688
O16   O     O_3   0.665431 0.328295 0.170090 -0.688666
H14   H     H_    0.631814 0.274340 0.207771 0.332689
F1    F     F_    0.443472 0.361388 0.926725 -0.542037
F2    F     F_    0.556528 0.638612 0.073275 -0.542038

loop_
_geom_bond_atom_site_label_1
_geom_bond_atom_site_label_2
_ccdc_geom_bond_type
C30   C32   A    
C5    C7    A    
Cu2   O6    S    
C1    C15   S    
C17   O5    A    
C25   C27   A    
Cu1   O5    S    
C19   C27   A    
C17   O7    A    
C26   C28   A    
N3    N4    D    
C3    C13   A    
C18   O8    A    
Cu2   N3    S    
Cu1   O8    S    
C21   C23   A    
Cu1   Cu2   S    
C27   C32   A    
C15   H9    S    
Cu2   O7    S    
C29   C31   A    
C29   O13   S    
C30   O14   S    
C19   O9    S    
Cu1   O4    S    
C22   O12   S    
C9    C11   A    
C24   C26   A    
Cu2   O3    S    
O13   H11   S    
C12   H8    S    
C2    O4    A    
C21   N1    A    
C32   H2    S    
C31   H1    S    
C5    O15   S    
C6    O16   S    
C22   N2    A    
C12   C14   A    
C21   O11   S    
C14   N1    S    
C10   C12   A    
C23   C25   A    
C4    C14   A    
C13   N2    S    
C22   C24   A    
Cu2   O2    S    
C24   C30   A    
C28   C31   A    
C18   O6    A    
Cu1   O1    S    
C15   C16   D    
C20   C28   A    
C23   C29   A    
C11   C13   A    
C20   O10   S    
C2    C16   S    
C3    H3    S    
C8    C10   A    
O15   H13   S    
C11   H7    S    
N4    F2    S    
C7    C9    A    
Cu1   N4    S    
C16   H10   S    
N3    F1    S    
C10   H6    S    
C6    C8    A    
C1    O3    A    
C2    O2    A    
C3    C5    A    
C25   C26   A    
C4    C6    A    
C9    H5    S    
C8    C18   S    
C19   N1    A    
O16   H14   S    
C4    H4    S    
O14   H12   S    
C7    C17   S    
C20   N2    A    
C1    O1    A    
