data_mof_unit_pretest_519.cif
_audit_creation_date              2012-12-10T18:44:28-0500
_audit_creation_method            fapswitch 2.2
_symmetry_space_group_name_H-M    P1
_symmetry_Int_Tables_number       1
_space_group_crystal_system       triclinic
_cell_length_a                    12.988513
_cell_length_b                    19.405058
_cell_length_c                    18.334128
_cell_angle_alpha                 89.549938
_cell_angle_beta                  96.214944
_cell_angle_gamma                 90.893102
_cell_volume                      4593.18070806

loop_
_atom_site_label
_atom_site_type_symbol
_atom_type_description
_atom_site_fract_x
_atom_site_fract_y
_atom_site_fract_z
_atom_type_partial_charge
C1    C     C_R   0.500008 0.368007 0.500207 0.774133
C2    C     C_R   0.500429 0.632139 0.499668 0.769451
C3    C     C_R   0.496806 0.851791 0.496908 0.134716
C4    C     C_R   0.495534 0.148779 0.497530 0.138304
C5    C     C_R   0.552476 0.816409 0.555195 -0.118615
C6    C     C_R   0.569262 0.186024 0.461838 -0.105020
C7    C     C_R   0.552897 0.744670 0.556480 -0.184722
C8    C     C_R   0.570111 0.257802 0.462204 -0.210683
C9    C     C_R   0.500237 0.707410 0.498480 -0.038390
C10   C     C_R   0.499610 0.293001 0.500294 0.006814
C11   C     C_R   0.475192 0.964161 0.560878 0.469706
C12   C     C_R   0.500397 0.036318 0.430264 0.469046
C13   C     C_R   0.479784 0.035977 0.560482 -0.304841
C14   C     C_R   0.504592 0.964522 0.432143 -0.307102
C15   C     C_R   0.492302 0.072736 0.495798 -0.090598
C16   C     C_R   0.492375 0.927776 0.496944 -0.089951
C17   C     C_R   0.470593 0.442182 0.720500 0.534478
C18   C     C_R   0.582471 0.526369 0.283762 0.512511
C19   C     C_R   0.478654 0.440429 0.797701 -0.287840
C20   C     C_R   0.585480 0.521230 0.207633 -0.307472
C21   C     C_R   0.501075 0.500366 0.839009 0.064838
C22   C     C_R   0.497855 0.499364 0.161496 0.076924
C23   C     C_R   0.300607 0.500987 0.486147 0.859689
C24   C     C_R   0.699442 0.499567 0.513917 0.856372
C25   C     C_R   0.523234 0.560231 0.799623 -0.319611
C26   C     C_R   0.411139 0.477634 0.196052 -0.314283
C27   C     C_R   0.528178 0.558162 0.723530 0.703813
C28   C     C_R   0.415700 0.474773 0.272901 0.725760
C29   C     C_R   0.567478 0.544265 0.967723 0.303764
C30   C     C_R   0.439900 0.450184 0.033685 0.279521
C31   C     C_R   0.558325 0.547889 0.043345 0.479238
C32   C     C_R   0.435304 0.454542 0.956723 0.479606
C33   C     C_R   0.498048 0.499258 0.078719 -0.210063
C34   C     C_R   0.501291 0.499914 0.921855 -0.215863
C35   C     C_R   0.812366 0.498176 0.522653 -0.238764
C36   C     C_R   0.187819 0.503853 0.477862 -0.249336
C37   C     C_R   0.025058 0.530452 0.406212 0.390162
C38   C     C_R   0.975696 0.473306 0.594985 0.397287
C39   C     C_R   0.132798 0.527146 0.412357 0.560639
C40   C     C_R   0.867386 0.474739 0.588102 0.506040
C41   C     C_R   0.135079 0.485263 0.537647 -0.313866
C42   C     C_R   0.865355 0.518795 0.463715 -0.303478
C43   C     C_R   0.027944 0.490289 0.533651 -0.053602
C44   C     C_R   0.972408 0.513358 0.467506 -0.096992
C45   C     C_R   0.447612 0.742509 0.438941 -0.193858
C46   C     C_R   0.427353 0.256227 0.537112 -0.156032
C47   C     C_R   0.444924 0.814216 0.438526 -0.185377
C48   C     C_R   0.424621 0.184542 0.535253 -0.195985
Cu1   Cu    Cu3+1 0.499970 0.500000 0.573360 1.046434
Cu2   Cu    Cu3+1 0.500030 0.500000 0.426640 1.031201
H1    H     H_    0.822681 0.538305 0.414289 0.248536
H2    H     H_    0.178077 0.467494 0.587877 0.205766
H3    H     H_    0.466230 0.391624 0.824271 0.213592
H4    H     H_    0.656893 0.534991 0.185593 0.201652
H5    H     H_    0.537850 0.609090 0.826895 0.228745
H6    H     H_    0.339382 0.462460 0.164573 0.226101
H7    H     H_    0.406557 0.714414 0.393631 0.163868
H8    H     H_    0.371152 0.282988 0.565289 0.141926
H9    H     H_    0.400961 0.840253 0.393152 0.135137
H10   H     H_    0.366134 0.157089 0.562374 0.128684
H11   H     H_    0.595920 0.844203 0.599670 0.174790
H12   H     H_    0.626459 0.159695 0.433980 0.168301
H13   H     H_    0.595911 0.718383 0.602048 0.208061
H14   H     H_    0.626718 0.285879 0.433825 0.141122
H15   H     H_    0.472759 0.063037 0.611131 0.173535
H16   H     H_    0.517032 0.937482 0.382444 0.170650
N1    N     N_R   0.499990 0.500020 0.683620 -0.254266
N2    N     N_R   0.500010 0.499980 0.316380 -0.262048
O1    O     O_R   0.499960 0.400180 0.561970 -0.525043
O2    O     O_R   0.500040 0.599820 0.438030 -0.607105
O3    O     O_R   0.500010 0.400190 0.438070 -0.574193
O4    O     O_R   0.499990 0.599810 0.561930 -0.514595
O5    O     O_R   0.348980 0.499990 0.551890 -0.623187
O6    O     O_R   0.651020 0.500010 0.448110 -0.562636
O7    O     O_R   0.349030 0.499990 0.427990 -0.462483
O8    O     O_R   0.650970 0.500010 0.572010 -0.507671
O9    O     O_3   0.434929 0.383813 0.682906 -0.580631
C49   C     C_3   0.325982 0.377403 0.682437 0.068681
H17   H     H_    0.291713 0.375581 0.624332 0.154034
H18   H     H_    0.288834 0.421144 0.708383 0.130943
C50   C     C_3   0.298644 0.310095 0.720320 -0.376957
H19   H     H_    0.333051 0.266010 0.693734 0.218773
H20   H     H_    0.331177 0.311337 0.778864 0.245446
C51   C     C_3   0.181545 0.299183 0.716174 -0.815744
H21   H     H_    0.145955 0.341665 0.744527 0.285363
H22   H     H_    0.164062 0.249701 0.743389 0.248456
H23   H     H_    0.147071 0.297259 0.658047 0.256794
O10   O     O_3   0.665569 0.556576 0.325204 -0.619055
C52   C     C_3   0.653572 0.628983 0.326375 0.085920
H24   H     H_    0.671361 0.645937 0.384176 0.169083
H25   H     H_    0.573389 0.646733 0.307785 0.143155
C53   C     C_3   0.731030 0.664377 0.280608 -0.383234
H26   H     H_    0.810716 0.647819 0.300530 0.255773
H27   H     H_    0.714074 0.649282 0.222217 0.257665
C54   C     C_3   0.725754 0.742660 0.285904 -0.856400
H28   H     H_    0.647077 0.760553 0.265162 0.260627
H29   H     H_    0.782681 0.766880 0.252204 0.266012
H30   H     H_    0.744516 0.759307 0.343721 0.251444
F1    F     F_    0.563011 0.615448 0.691172 -0.668227
F2    F     F_    0.334319 0.446349 0.303058 -0.630630
O11   O     O_3   0.639906 0.587038 0.939612 -0.560768
C55   C     C_3   0.729364 0.549080 0.929062 0.081749
H31   H     H_    0.764437 0.573077 0.882196 0.176701
H32   H     H_    0.712334 0.494169 0.913700 0.122483
C56   C     C_3   0.808445 0.552994 0.997378 -0.319010
H33   H     H_    0.824265 0.607867 0.012194 0.256166
H34   H     H_    0.776527 0.526564 0.044156 0.216723
C57   C     C_3   0.909886 0.518953 0.984239 -0.920003
H35   H     H_    0.896297 0.463480 0.971452 0.261605
H36   H     H_    0.965713 0.523362 0.034369 0.270034
H37   H     H_    0.944237 0.544729 0.938054 0.261277
O12   O     O_3   0.383599 0.398268 0.063684 -0.561759
C58   C     C_3   0.449354 0.341793 0.080784 0.083672
H38   H     H_    0.519548 0.357556 0.117750 0.126010
H39   H     H_    0.473698 0.319515 0.029588 0.156938
C59   C     C_3   0.390537 0.286532 0.120086 -0.309763
H40   H     H_    0.364223 0.308678 0.170547 0.232039
H41   H     H_    0.321162 0.269276 0.083560 0.235738
C60   C     C_3   0.458460 0.224494 0.141234 -0.926523
H42   H     H_    0.485481 0.201320 0.091594 0.262076
H43   H     H_    0.413099 0.184995 0.168649 0.256302
H44   H     H_    0.526601 0.240225 0.179736 0.259147
F3    F     F_    0.609115 0.600191 0.081414 -0.657883
F4    F     F_    0.364279 0.414030 0.916898 -0.655019
F5    F     F_    0.816540 0.450919 0.644426 -0.649503
F6    F     F_    0.183222 0.548679 0.354953 -0.626102
O13   O     O_3   0.972983 0.555924 0.341945 -0.595635
C61   C     C_3   0.930085 0.500907 0.297577 0.034701
H45   H     H_    0.851901 0.516679 0.273180 0.184181
H46   H     H_    0.918835 0.451907 0.328377 0.129010
C62   C     C_3   0.996753 0.487862 0.235317 -0.277606
H47   H     H_    0.008870 0.536967 0.205572 0.243654
H48   H     H_    0.073467 0.468371 0.258491 0.268137
C63   C     C_3   0.945418 0.435090 0.181193 -0.945935
H49   H     H_    0.933276 0.385323 0.209600 0.262041
H50   H     H_    0.995993 0.426248 0.137173 0.272852
H51   H     H_    0.869613 0.454210 0.155714 0.253709
O14   O     O_3   0.030099 0.448373 0.658792 -0.609971
C64   C     C_3   0.029638 0.496873 0.716147 0.092755
H52   H     H_    0.042720 0.468060 0.768861 0.182584
H53   H     H_    0.954068 0.523215 0.716652 0.170266
C65   C     C_3   0.117246 0.550434 0.713336 -0.411420
H54   H     H_    0.192258 0.523915 0.712820 0.225767
H55   H     H_    0.103286 0.581843 0.662391 0.222156
C66   C     C_3   0.124309 0.598274 0.779390 -0.866145
H56   H     H_    0.050582 0.626277 0.780662 0.252839
H57   H     H_    0.187996 0.636541 0.775578 0.262991
H58   H     H_    0.140808 0.568285 0.831092 0.267282
O15   O     O_3   0.458648 0.930394 0.625438 -0.618178
C67   C     C_3   0.354141 0.907603 0.622145 0.072189
H59   H     H_    0.352061 0.860977 0.657543 0.180669
H60   H     H_    0.320639 0.891565 0.566078 0.130692
C68   C     C_3   0.287095 0.962982 0.651772 -0.371191
H61   H     H_    0.321181 0.978337 0.707613 0.236719
H62   H     H_    0.285079 0.009180 0.615502 0.208080
C69   C     C_3   0.176413 0.936760 0.655482 -0.892766
H63   H     H_    0.140361 0.922052 0.599960 0.255978
H64   H     H_    0.129798 0.978042 0.676836 0.260134
H65   H     H_    0.175792 0.891388 0.692767 0.259223
O16   O     O_3   0.509136 0.070140 0.364433 -0.621849
C70   C     C_3   0.410333 0.091976 0.333323 0.061609
H66   H     H_    0.421578 0.140896 0.303125 0.173703
H67   H     H_    0.356197 0.103755 0.374781 0.132037
C71   C     C_3   0.361260 0.038243 0.278952 -0.363313
H68   H     H_    0.414239 0.028824 0.236475 0.234745
H69   H     H_    0.349151 0.988961 0.308303 0.212361
C72   C     C_3   0.257139 0.062267 0.241643 -0.898047
H70   H     H_    0.202260 0.070513 0.283097 0.257100
H71   H     H_    0.223842 0.022387 0.202467 0.262241
H72   H     H_    0.267009 0.111053 0.210928 0.254690

loop_
_geom_bond_atom_site_label_1
_geom_bond_atom_site_label_2
_ccdc_geom_bond_type
C38   C40   A    
C9    C45   A    
O11   C55   S    
C11   C13   A    
C32   F4    S    
C54   H28   S    
C69   H65   S    
C51   H23   S    
Cu2   O3    S    
C62   C63   S    
C24   O6    A    
C61   H45   S    
C50   C51   S    
C63   H51   S    
C70   H66   S    
C54   H30   S    
C72   H71   S    
C13   H15   S    
O9    C49   S    
C59   H40   S    
C56   H34   S    
C27   F1    S    
C1    O3    A    
C69   H63   S    
C19   C21   A    
C51   H22   S    
Cu2   O6    S    
C66   H56   S    
C64   C65   S    
C49   H18   S    
C18   N2    A    
C57   H35   S    
C55   C56   S    
C3    C47   A    
C35   C42   A    
C66   H57   S    
C11   O15   S    
C57   H36   S    
C67   C68   S    
C10   C46   A    
C31   C33   A    
C70   H67   S    
C52   H25   S    
C41   H2    S    
C18   C20   A    
C42   H1    S    
C58   C59   S    
C19   H3    S    
C45   C47   A    
C68   H61   S    
C39   F6    S    
Cu1   O1    S    
C46   H8    S    
C41   C43   A    
C65   C66   S    
C36   C41   A    
C42   C44   A    
C23   O5    A    
C2    O4    A    
C17   O9    S    
O12   C58   S    
C50   H20   S    
C48   H10   S    
C72   H72   S    
C60   H43   S    
C38   O14   S    
C37   C39   A    
C56   C57   S    
C46   C48   A    
C17   N1    A    
C24   C35   S    
C5    H11   S    
C27   N1    A    
C51   H21   S    
C20   H4    S    
C23   O7    A    
C72   H70   S    
C5    C7    A    
C49   H17   S    
C24   O8    A    
C63   H50   S    
C21   C34   S    
C3    C5    A    
C29   C34   A    
Cu1   O4    S    
C53   C54   S    
C50   H19   S    
C30   O12   S    
C52   C53   S    
C32   C34   A    
C43   C44   A    
C67   H60   S    
C11   C16   A    
C12   C15   A    
C60   H42   S    
C45   H7    S    
C53   H27   S    
C14   H16   S    
Cu1   O8    S    
C29   O11   S    
C57   H37   S    
C12   O16   S    
C68   C69   S    
C55   H32   S    
C7    H13   S    
C8    H14   S    
C4    C6    A    
C12   C14   A    
Cu1   Cu2   S    
C13   C15   A    
C14   C16   A    
C68   H62   S    
C62   H47   S    
C61   C62   S    
C70   C71   S    
C66   H58   S    
C58   H38   S    
C4    C48   A    
C60   H44   S    
C7    C9    A    
C22   C33   S    
C21   C25   A    
C71   H68   S    
Cu1   N1    S    
C30   C33   A    
C28   N2    A    
C65   H54   S    
C36   C39   A    
C1    C10   S    
C25   H5    S    
C20   C22   A    
C62   H48   S    
C26   H6    S    
C6    C8    A    
C64   H52   S    
C54   H29   S    
C63   H49   S    
C61   H46   S    
C25   C27   A    
C56   H33   S    
C26   C28   A    
C59   C60   S    
O16   C70   S    
C6    H12   S    
C37   C44   A    
C69   H64   S    
C35   C40   A    
Cu2   O2    S    
C31   F3    S    
C38   C43   A    
C29   C31   A    
C2    O2    A    
Cu2   O7    S    
C30   C32   A    
C64   H53   S    
C49   C50   S    
C28   F2    S    
C4    C15   S    
C40   F5    S    
C71   H69   S    
C53   H26   S    
C17   C19   A    
C59   H41   S    
Cu1   O5    S    
C71   C72   S    
C55   H31   S    
C1    O1    A    
C18   O10   S    
O14   C64   S    
C47   H9    S    
O10   C52   S    
C8    C10   A    
C23   C36   S    
C22   C26   A    
C67   H59   S    
C58   H39   S    
C52   H24   S    
O15   C67   S    
C2    C9    S    
Cu2   N2    S    
C65   H55   S    
C3    C16   S    
O13   C61   S    
C37   O13   S    
