data_mof_unit_pretest_563.cif
_audit_creation_date              2013-03-05T15:45:04-0500
_audit_creation_method            fapswitch 2.2
_symmetry_space_group_name_H-M    P1
_symmetry_Int_Tables_number       1
_space_group_crystal_system       triclinic
_cell_length_a                    7.2359
_cell_length_b                    18.842534
_cell_length_c                    19.166941
_cell_angle_alpha                 89.999127
_cell_angle_beta                  87.134767
_cell_angle_gamma                 89.999002
_cell_volume                      2610.0054061

loop_
_atom_site_label
_atom_site_type_symbol
_atom_site_description
_atom_site_fract_x
_atom_site_fract_y
_atom_site_fract_z
_atom_type_partial_charge
O1    O     O_R   0.350610 0.187000 0.656530 -0.556829
O2    O     O_R   0.649390 0.813000 0.343470 -0.557932
O3    O     O_R   0.149390 0.687000 0.343470 -0.557929
O4    O     O_R   0.850610 0.313000 0.656530 -0.556863
O5    O     O_R   0.655920 0.179060 0.799470 -0.593869
O6    O     O_R   0.344080 0.820940 0.200530 -0.593678
O7    O     O_R   0.844080 0.679060 0.200530 -0.593673
O8    O     O_R   0.155920 0.320940 0.799470 -0.593871
O9    O     O_R   0.826150 0.314000 0.799910 -0.590228
O10   O     O_R   0.173850 0.686000 0.200090 -0.590126
O11   O     O_R   0.673850 0.814000 0.200090 -0.590106
O12   O     O_R   0.326150 0.186000 0.799910 -0.590226
C1    C     C_R   0.485168 0.161224 0.822606 0.924099
C2    C     C_R   0.514835 0.838779 0.177397 0.924867
C3    C     C_R   0.014837 0.661220 0.177397 0.924807
C4    C     C_R   0.985165 0.338777 0.822606 0.924074
O13   O     O_R   0.680230 0.178680 0.657050 -0.566884
O14   O     O_R   0.319770 0.821320 0.342950 -0.565150
O15   O     O_R   0.819770 0.678680 0.342950 -0.565323
O16   O     O_R   0.180230 0.321320 0.657050 -0.566866
C5    C     C_R   0.514896 0.161906 0.634216 1.030099
C6    C     C_R   0.484987 0.837738 0.366081 1.033100
C7    C     C_R   0.984992 0.662257 0.366076 1.033577
C8    C     C_R   0.014890 0.338100 0.634222 1.030176
O17   O     O_3   0.504860 0.294770 0.728200 -0.284351
O18   O     O_3   0.495140 0.705230 0.271800 -0.285402
O19   O     O_3   0.995140 0.794770 0.271800 -0.285269
O20   O     O_3   0.004860 0.205230 0.728200 -0.284324
V1    V     V_3+5 0.779710 0.242290 0.728230 1.213859
V2    V     V_3+5 0.220290 0.757710 0.271770 1.212442
V3    V     V_3+5 0.720290 0.742290 0.271770 1.212355
V4    V     V_3+5 0.279710 0.257710 0.728230 1.213867
H1    H     H_    0.975084 0.476760 0.643706 0.127854
H2    H     H_    0.017754 0.523603 0.356857 0.128161
H3    H     H_    0.517556 0.976421 0.356842 0.128180
H4    H     H_    0.475266 0.023236 0.643698 0.127853
C9    C     C_1   0.028675 0.608027 0.121904 -0.286036
C10   C     C_1   0.971342 0.391966 0.878104 -0.285827
C11   C     C_1   0.471348 0.108036 0.878105 -0.285849
C12   C     C_1   0.528670 0.891972 0.121903 -0.286064
C13   C     C_2   0.067361 0.508809 0.021507 -0.169312
C14   C     C_2   0.932685 0.491179 0.978506 -0.168508
C15   C     C_2   0.432682 0.008829 0.978513 -0.168460
C16   C     C_2   0.567370 0.991186 0.021503 -0.169295
C17   C     C_1   0.957394 0.436759 0.924118 0.075437
C18   C     C_1   0.042643 0.563231 0.075893 0.075807
C19   C     C_1   0.542642 0.936767 0.075891 0.075819
C20   C     C_1   0.457398 0.063245 0.924121 0.075438
H5    H     H_    0.799846 0.517975 0.983782 0.137171
H6    H     H_    0.200201 0.482013 0.016234 0.136914
H7    H     H_    0.700225 0.017968 0.016219 0.136913
H8    H     H_    0.299828 0.982046 0.983799 0.137183
C21   C     C_R   0.013662 0.388441 0.575069 -0.271606
C22   C     C_R   0.984783 0.612137 0.425416 -0.268867
C23   C     C_R   0.484803 0.887881 0.425403 -0.268474
C24   C     C_R   0.513701 0.111565 0.575062 -0.271428
C25   C     C_R   0.970559 0.585678 0.550529 -0.162449
C26   C     C_R   0.031772 0.415243 0.450066 -0.162212
C27   C     C_R   0.532010 0.084765 0.450058 -0.162135
C28   C     C_R   0.471230 0.914305 0.550521 -0.162117
C29   C     C_R   0.968771 0.636111 0.495365 0.362274
C30   C     C_R   0.035394 0.364810 0.505145 0.361326
C31   C     C_R   0.535501 0.135198 0.505140 0.361227
C32   C     C_R   0.469120 0.863905 0.495345 0.361999
C33   C     C_R   0.005364 0.539691 0.411130 -0.299911
C34   C     C_R   0.991801 0.460881 0.589465 -0.298029
C35   C     C_R   0.492017 0.039117 0.589458 -0.298110
C36   C     C_R   0.505360 0.960327 0.411115 -0.299844
C37   C     C_R   0.010718 0.488863 0.465148 0.127030
C38   C     C_R   0.991916 0.512003 0.535527 0.127193
C39   C     C_R   0.492265 0.987995 0.535520 0.127313
C40   C     C_R   0.510887 0.011146 0.465138 0.127023
C41   C     C_R   0.942575 0.610536 0.623673 0.150459
C42   C     C_R   0.093887 0.616659 0.666414 -0.064839
C43   C     C_R   0.068442 0.643794 0.734125 -0.119869
C44   C     C_R   0.892222 0.664777 0.759468 -0.123944
C45   C     C_R   0.741006 0.658496 0.717221 -0.093587
C46   C     C_R   0.765862 0.631424 0.649480 -0.059189
H9    H     H_    0.231266 0.601404 0.646894 0.118512
H10   H     H_    0.185504 0.649003 0.766776 0.108650
H11   H     H_    0.872916 0.686043 0.811779 0.107100
H12   H     H_    0.604738 0.674926 0.736823 0.118174
H13   H     H_    0.648188 0.627239 0.616943 0.142770
C47   C     C_R   0.040974 0.390007 0.376741 0.152004
C48   C     C_R   0.208552 0.392743 0.336582 -0.065085
C49   C     C_R   0.218172 0.366265 0.268334 -0.120010
C50   C     C_R   0.060727 0.337313 0.239836 -0.124303
C51   C     C_R   0.893237 0.334970 0.279457 -0.103445
C52   C     C_R   0.883090 0.361330 0.347729 -0.060421
H14   H     H_    0.331549 0.414489 0.358474 0.117354
H15   H     H_    0.347833 0.367878 0.237663 0.108917
H16   H     H_    0.068543 0.316663 0.187080 0.108290
H17   H     H_    0.771413 0.312590 0.257343 0.121575
H18   H     H_    0.752848 0.359268 0.378055 0.154380
C53   C     C_R   0.541896 0.109989 0.376725 0.151919
C54   C     C_R   0.384611 0.139018 0.347588 -0.060350
C55   C     C_R   0.395546 0.165419 0.279332 -0.104201
C56   C     C_R   0.563213 0.162751 0.239845 -0.124430
C57   C     C_R   0.720048 0.133438 0.268464 -0.118999
C58   C     C_R   0.709650 0.106935 0.336700 -0.065549
H19   H     H_    0.254237 0.141327 0.377807 0.154838
H20   H     H_    0.274199 0.188085 0.257126 0.121772
H21   H     H_    0.571645 0.183430 0.187101 0.108228
H22   H     H_    0.849849 0.131569 0.237896 0.108908
H23   H     H_    0.832195 0.084918 0.358689 0.117388
C59   C     C_R   0.444503 0.889347 0.623680 0.149838
C60   C     C_R   0.268655 0.867608 0.649652 -0.059063
C61   C     C_R   0.245239 0.840288 0.717345 -0.094926
C62   C     C_R   0.397012 0.834636 0.759393 -0.124482
C63   C     C_R   0.572348 0.856490 0.733898 -0.117585
C64   C     C_R   0.596366 0.883841 0.666224 -0.065494
H24   H     H_    0.150576 0.871293 0.617268 0.143876
H25   H     H_    0.109665 0.823170 0.737057 0.118892
H26   H     H_    0.378838 0.813177 0.811665 0.107052
H27   H     H_    0.689852 0.851777 0.766394 0.108542
H28   H     H_    0.733116 0.899748 0.646577 0.118417
N1    N     N_R   0.062214 0.290165 0.489977 0.250997
O21   O     O_R   0.175590 0.269865 0.439066 -0.381608
O22   O     O_R   0.978094 0.241725 0.528080 -0.377094
N2    N     N_R   0.953424 0.711223 0.510491 0.251379
O23   O     O_R   0.036652 0.738861 0.562631 -0.375584
O24   O     O_R   0.862086 0.753214 0.470817 -0.382860
N3    N     N_R   0.453814 0.788799 0.510445 0.250599
O25   O     O_R   0.538208 0.761053 0.562252 -0.374972
O26   O     O_R   0.361010 0.746956 0.471119 -0.383227
N4    N     N_R   0.562314 0.209844 0.489981 0.250798
O27   O     O_R   0.675880 0.230160 0.439132 -0.381290
O28   O     O_R   0.477934 0.258271 0.528022 -0.377233

loop_
_geom_bond_atom_site_label_1
_geom_bond_atom_site_label_2
_geom_bond_distance
_ccdc_geom_bond_type
C26   C30   1.421603 A    
C12   C19   1.221262 T    
C50   C51   1.398369 A    
O1    C5    1.329959 A    
N4    O27   1.300625 A    
O13   V1    1.978459 S    
C41   C42   1.404580 A    
O3    C7    1.329905 A    
C53   C54   1.403506 A    
C15   C16   1.348913 D    
O15   V3    1.978422 S    
C23   C36   1.398726 A    
H4    C35   1.082781 S    
N3    O25   1.301099 A    
C22   C33   1.398748 A    
C45   C46   1.398227 A    
C58   H23   1.083222 S    
C45   H12   1.082679 S    
O20   V1    1.772476 S    
O9    C4    1.334609 A    
O10   C3    1.334591 A    
N1    O22   1.300969 A    
O16   V4    1.978419 S    
O4    C8    1.329939 A    
O11   C2    1.334582 A    
C15   H8    1.085978 S    
N3    O26   1.300505 A    
C59   C60   1.404040 A    
C56   H21   1.082298 S    
C61   C62   1.398373 A    
C13   C14   1.348928 D    
C25   C41   1.482393 S    
C52   H18   1.082944 S    
C63   C64   1.398463 A    
C3    C9    1.461278 S    
C30   N1    1.447335 S    
C46   H13   1.083159 S    
O16   C8    1.332312 A    
C10   C17   1.221277 T    
O2    C6    1.329918 A    
C13   C18   1.466809 S    
C64   H28   1.083298 S    
O14   V2    1.978463 S    
C25   C38   1.424540 A    
C43   H10   1.082485 S    
O5    C1    1.334693 A    
O4    V1    1.963789 S    
C16   C19   1.466788 S    
O9    V1    1.967855 S    
C27   C40   1.423639 A    
C51   C52   1.398162 A    
O17   V4    1.772498 S    
O7    C3    1.334716 A    
C57   H22   1.082418 S    
O11   V3    1.967818 S    
O18   V3    1.772497 S    
O8    C4    1.334701 A    
O14   C6    1.332092 A    
C54   H19   1.082913 S    
C23   C32   1.413831 A    
O19   V2    1.772474 S    
C27   C53   1.482082 S    
H2    C33   1.082917 S    
N2    O24   1.300490 A    
H1    C34   1.082789 S    
C55   C56   1.398370 A    
O5    V1    1.990975 S    
C59   C64   1.404559 A    
O7    V3    1.990978 S    
C42   C43   1.398481 A    
O8    V4    1.990981 S    
C47   C48   1.404341 A    
C50   H16   1.082291 S    
C53   C58   1.404339 A    
C28   C39   1.424568 A    
C8    C21   1.478609 S    
C48   C49   1.398493 A    
C41   C46   1.404049 A    
O1    V4    1.963804 S    
O13   C5    1.332298 A    
O2    V3    1.963808 S    
C14   C17   1.466811 S    
C61   H25   1.082643 S    
O3    V2    1.963790 S    
O15   C7    1.332094 A    
C43   C44   1.398662 A    
C26   C47   1.482038 S    
O6    C2    1.334709 A    
C21   C30   1.413549 A    
O10   V2    1.967853 S    
C57   C58   1.398477 A    
C36   C40   1.412393 A    
C54   C55   1.398191 A    
C24   C31   1.413551 A    
C60   H24   1.083115 S    
C44   C45   1.398403 A    
C21   C34   1.399966 A    
C62   H26   1.082299 S    
C16   H7    1.085979 S    
O6    V2    1.990972 S    
C42   H9    1.083318 S    
C47   C52   1.403517 A    
C60   C61   1.398239 A    
C32   N3    1.447610 S    
C13   H6    1.085979 S    
C28   C59   1.482477 S    
N2    O23   1.301067 A    
C7    C22   1.478273 S    
C15   C20   1.466790 S    
C51   H17   1.082536 S    
N4    O28   1.300965 A    
C49   C50   1.398614 A    
C55   H20   1.082521 S    
C44   H11   1.082298 S    
C5    C24   1.478636 S    
C48   H14   1.083237 S    
C26   C37   1.423616 A    
C25   C29   1.422134 A    
C6    C23   1.478305 S    
C22   C29   1.414027 A    
C24   C35   1.399979 A    
C27   C31   1.421622 A    
C28   C32   1.422029 A    
C49   H15   1.082418 S    
C39   C40   1.417782 A    
N1    O21   1.300578 A    
C34   C38   1.413004 A    
H3    C36   1.082901 S    
C33   C37   1.412341 A    
C35   C39   1.412985 A    
C37   C38   1.417717 A    
C1    C11   1.461255 S    
C31   N4    1.447309 S    
C14   H5    1.085978 S    
C2    C12   1.461256 S    
O12   C1    1.334603 A    
C56   C57   1.398575 A    
C9    C18   1.221277 T    
C62   C63   1.398581 A    
C63   H27   1.082455 S    
O12   V4    1.967817 S    
C4    C10   1.461281 S    
C11   C20   1.221264 T    
C29   N2    1.447845 S    
