data_mof_unit_pretest_314.cif
_audit_creation_date              2012-10-26T18:36:04-0400
_audit_creation_method            fapswitch 2.2
_symmetry_space_group_name_H-M    P1
_symmetry_Int_Tables_number       1
_space_group_crystal_system       triclinic
_cell_length_a                    10.822123
_cell_length_b                    12.727088
_cell_length_c                    13.883801
_cell_angle_alpha                 97.900904
_cell_angle_beta                  89.944534
_cell_angle_gamma                 93.215309
_cell_volume                      1891.09471071

loop_
_atom_site_label
_atom_site_type_symbol
_atom_type_description
_atom_site_fract_x
_atom_site_fract_y
_atom_site_fract_z
_atom_type_partial_charge
C1    C     C_R   0.498406 0.483670 0.315846 0.549465
C2    C     C_1   0.493603 0.474761 0.212721 -0.013595
C3    C     C_2   0.470969 0.027973 0.472822 -0.164927
C4    C     C_R   0.259950 0.499912 0.495202 0.597520
C5    C     C_2   0.534057 0.972021 0.531599 -0.048740
C6    C     C_1   0.525121 0.854792 0.520999 0.135772
C7    C     C_1   0.476653 0.145346 0.480478 0.154350
C8    C     C_R   0.502806 0.516321 0.684088 0.549288
C9    C     C_R   0.740110 0.499317 0.494567 0.552962
C10   C     C_3   0.066662 0.388809 0.440843 0.070265
C11   C     C_3   0.921776 0.383953 0.449839 -0.081209
C12   C     C_3   0.878583 0.498852 0.493493 -0.061174
C13   C     C_3   0.075813 0.518097 0.603644 0.153525
C14   C     C_3   0.077620 0.591455 0.435256 -0.013161
C15   C     C_3   0.122058 0.500340 0.493638 -0.009196
C16   C     C_3   0.812910 0.705582 0.361385 0.040340
C17   C     C_3   0.898116 0.754132 0.289079 -0.289114
C18   C     C_3   0.823290 0.799714 0.213144 -0.487104
C19   C     C_3   0.194738 0.611615 0.744287 0.037958
C20   C     C_3   0.099152 0.618763 0.826163 -0.281018
C21   C     C_3   0.161972 0.625685 0.925412 -0.465922
C22   C     C_1   0.904652 0.646294 0.634857 0.327352
C23   C     C_3   0.930733 0.533832 0.601486 -0.051739
C24   C     C_3   0.412236 0.276825 0.009819 0.011674
C25   C     C_3   0.535310 0.223976 0.017562 -0.260342
C26   C     C_3   0.519410 0.127580 0.071582 -0.479230
C27   C     C_3   0.605323 0.719693 0.987889 -0.003100
C28   C     C_3   0.734166 0.713612 0.941665 -0.275651
C29   C     C_3   0.769579 0.813776 0.896624 -0.459554
C30   C     C_1   0.612719 0.026720 0.608716 0.238313
C31   C     C_3   0.109231 0.263004 0.304313 0.016084
C32   C     C_3   0.241050 0.226353 0.305804 -0.254001
C33   C     C_3   0.247486 0.111212 0.258663 -0.501106
C34   C     C_3   0.933305 0.578712 0.423183 0.104379
C35   C     C_1   0.860349 0.347604 0.354244 0.228814
C36   C     C_1   0.884546 0.300890 0.510973 0.192142
C37   C     C_1   0.103195 0.421192 0.649500 0.172592
C38   C     C_1   0.861930 0.475762 0.672689 0.156554
C39   C     C_1   0.116453 0.699637 0.483856 0.342612
C40   C     C_1   0.135676 0.585531 0.337988 0.209112
C41   C     C_1   0.508603 0.525286 0.787141 -0.027255
C42   C     C_2   0.522854 0.542193 0.978861 0.293417
C43   C     C_2   0.480873 0.457922 0.020821 0.294724
C44   C     C_1   0.488108 0.466819 0.125791 -0.004920
C45   C     C_1   0.514714 0.533360 0.874008 -0.011338
Cu1   Cu    Cu3+1 0.491980 0.395330 0.493960 1.030741
Cu2   Cu    Cu3+1 0.508020 0.604670 0.506040 1.024901
H1    H     H_    0.104747 0.325895 0.479117 0.141256
H2    H     H_    0.769442 0.866170 0.248263 0.153050
H3    H     H_    0.259698 0.682850 0.758199 0.162907
H4    H     H_    0.253513 0.543203 0.745567 0.138125
H5    H     H_    0.045583 0.690389 0.824339 0.174620
H6    H     H_    0.033982 0.547750 0.816569 0.183180
H7    H     H_    0.214446 0.553812 0.929465 0.181056
H8    H     H_    0.090785 0.631041 0.983285 0.161044
H9    H     H_    0.226380 0.697356 0.938468 0.144403
H10   H     H_    0.347736 0.219277 0.964656 0.168734
H11   H     H_    0.366159 0.293512 0.081555 0.125862
H12   H     H_    0.412102 0.984477 0.415837 0.111898
H13   H     H_    0.570572 0.198488 0.943279 0.193690
H14   H     H_    0.605426 0.281228 0.056823 0.177193
H15   H     H_    0.490755 0.152808 0.147668 0.158010
H16   H     H_    0.608728 0.088885 0.072930 0.155898
H17   H     H_    0.448733 0.068988 0.034793 0.143957
H18   H     H_    0.606243 0.791857 0.042979 0.152751
H19   H     H_    0.532723 0.730984 0.934009 0.122663
H20   H     H_    0.803980 0.704183 0.997976 0.168842
H21   H     H_    0.736532 0.643818 0.884303 0.177548
H22   H     H_    0.703585 0.822606 0.837399 0.177661
H23   H     H_    0.912591 0.540678 0.347188 0.117518
H24   H     H_    0.863997 0.808289 0.865764 0.167874
H25   H     H_    0.769249 0.885022 0.952680 0.145065
H26   H     H_    0.076525 0.253552 0.227618 0.171942
H27   H     H_    0.046315 0.210454 0.342874 0.125092
H28   H     H_    0.303190 0.278021 0.266326 0.187329
H29   H     H_    0.272917 0.232677 0.382212 0.196836
H30   H     H_    0.184558 0.058222 0.296179 0.157373
H31   H     H_    0.343348 0.085821 0.264405 0.145575
H32   H     H_    0.221216 0.103254 0.180560 0.146210
H33   H     H_    0.746877 0.765538 0.390699 0.179266
H34   H     H_    0.755564 0.636304 0.324315 0.134800
H35   H     H_    0.959988 0.818473 0.328598 0.189143
H36   H     H_    0.956017 0.692199 0.251268 0.166455
H37   H     H_    0.758618 0.736986 0.174793 0.187314
H38   H     H_    0.886722 0.830229 0.159154 0.147037
N1    N     N_1   0.479930 0.238040 0.484880 -0.191266
N2    N     N_1   0.181221 0.581006 0.262146 -0.292128
N3    N     N_1   0.520070 0.761960 0.515120 -0.192308
N4    N     N_1   0.884096 0.733879 0.661041 -0.253445
N5    N     N_1   0.675653 0.070462 0.670616 -0.244638
N6    N     N_1   0.812061 0.319580 0.280044 -0.320133
N7    N     N_1   0.855677 0.235408 0.558080 -0.222605
N8    N     N_1   0.124330 0.346775 0.684751 -0.271290
N9    N     N_1   0.808223 0.431075 0.728324 -0.265284
N10   N     N_1   0.146708 0.784173 0.521188 -0.241997
O1    O     O_R   0.492240 0.399110 0.356330 -0.509587
O2    O     O_3   0.139460 0.613778 0.651817 -0.567630
O3    O     O_3   0.428190 0.368105 0.962069 -0.583487
O4    O     O_3   0.577440 0.631218 0.037463 -0.603329
O5    O     O_3   0.106670 0.372402 0.342196 -0.563258
O6    O     O_R   0.505790 0.575900 0.366540 -0.505416
O7    O     O_R   0.310920 0.411610 0.494880 -0.515349
O8    O     O_R   0.324460 0.588390 0.505090 -0.475888
O9    O     O_R   0.494210 0.424100 0.633460 -0.458737
O10   O     O_R   0.507760 0.600890 0.643670 -0.504304
O11   O     O_R   0.675540 0.411610 0.494910 -0.486045
O12   O     O_R   0.689080 0.588390 0.505120 -0.463843
O13   O     O_3   0.881041 0.680253 0.441422 -0.548670

loop_
_geom_bond_atom_site_label_1
_geom_bond_atom_site_label_2
_ccdc_geom_bond_type
Cu2   O6    S    
C19   C20   S    
C43   O3    S    
C30   N5    T    
C8    O10   A    
C32   H28   S    
C19   O2    S    
Cu1   O7    S    
C12   C23   S    
C27   O4    S    
C24   O3    S    
C5    C6    S    
C40   N2    T    
C11   C36   S    
C28   H21   S    
C1    C2    S    
C3    C7    S    
C10   C15   S    
C21   H7    S    
C33   H31   S    
C31   H26   S    
C7    N1    T    
C4    O8    A    
C6    N3    T    
C13   C23   S    
C17   H35   S    
C26   H17   S    
C14   C39   S    
C2    C44   T    
C24   H10   S    
Cu2   O10   S    
C4    O7    A    
C18   H37   S    
C25   H13   S    
C34   H23   S    
C13   C37   S    
C29   H25   S    
C36   N7    T    
C13   O2    S    
C29   H22   S    
C18   H38   S    
Cu2   O8    S    
C28   H20   S    
C8    C41   S    
C21   H8    S    
C33   H32   S    
C31   H27   S    
C25   C26   S    
Cu1   O9    S    
C17   H36   S    
C42   C45   S    
C43   C44   S    
C14   C34   S    
C27   H18   S    
C31   C32   S    
C38   N9    T    
C17   C18   S    
C37   N8    T    
C25   H14   S    
C31   O5    S    
C24   C25   S    
C10   O5    S    
C8    O9    A    
C39   N10   T    
Cu2   O12   S    
C13   C15   S    
C10   H1    S    
C42   C43   D    
C12   C34   S    
C1    O6    A    
C5    C30   S    
Cu1   Cu2   S    
C28   C29   S    
C26   H16   S    
C14   C15   S    
C29   H24   S    
C20   H6    S    
C3    C5    D    
C32   H29   S    
C21   H9    S    
C11   C12   S    
C9    O12   A    
C23   C38   S    
C34   O13   S    
Cu2   N3    S    
C4    C15   S    
C11   C35   S    
C9    O11   A    
C20   H5    S    
C27   H19   S    
C42   O4    S    
C32   C33   S    
C19   H3    S    
C33   H30   S    
C16   C17   S    
C1    O1    A    
Cu1   O11   S    
C16   H34   S    
C22   N4    T    
C26   H15   S    
C9    C12   S    
C10   C11   S    
C16   O13   S    
C14   C40   S    
C19   H4    S    
Cu1   O1    S    
C20   C21   S    
C24   H11   S    
C27   C28   S    
C41   C45   T    
C22   C23   S    
C16   H33   S    
C18   H2    S    
C3    H12   S    
Cu1   N1    S    
C35   N6    T    
