data_mof_unit_pretest_1720.cif
_audit_creation_date              2012-12-11T15:51:11-0500
_audit_creation_method            fapswitch 2.2
_symmetry_space_group_name_H-M    P1
_symmetry_Int_Tables_number       1
_space_group_crystal_system       triclinic
_cell_length_a                    28.031327
_cell_length_b                    22.319253
_cell_length_c                    20.888855
_cell_angle_alpha                 90.234819
_cell_angle_beta                  52.481053
_cell_angle_gamma                 89.658649
_cell_volume                      10364.9222277

loop_
_atom_site_label
_atom_site_type_symbol
_atom_type_description
_atom_site_fract_x
_atom_site_fract_y
_atom_site_fract_z
_atom_type_partial_charge
C1    C     C_R   0.895645 0.565288 0.735298 0.491526
C2    C     C_R   0.936793 0.414573 0.721351 0.558436
C3    C     C_R   0.395642 0.065288 0.735297 0.491489
C4    C     C_R   0.436794 0.914570 0.721349 0.558165
C5    C     C_R   0.074160 0.345954 0.342572 0.412505
C6    C     C_R   0.092129 0.646353 0.335901 0.409904
C7    C     C_R   0.574155 0.845953 0.342575 0.412524
C8    C     C_R   0.592170 0.146330 0.335895 0.410106
C9    C     C_R   0.141822 0.381431 0.498709 0.022751
C10   C     C_R   0.139458 0.618469 0.503669 0.026197
C11   C     C_R   0.641831 0.881440 0.498691 0.022752
C12   C     C_R   0.639426 0.118499 0.503732 0.026187
C13   C     C_R   0.118906 0.624572 0.259740 -0.242310
C14   C     C_R   0.080605 0.358298 0.273698 -0.257977
C15   C     C_R   0.618972 0.124530 0.259736 -0.242187
C16   C     C_R   0.580599 0.858296 0.273702 -0.258131
C17   C     C_3   0.774458 0.251030 0.925968 0.531909
C18   C     C_3   0.688368 0.738826 0.936210 0.541444
C19   C     C_3   0.274959 0.749330 0.924718 0.532101
C20   C     C_3   0.188685 0.239123 0.936025 0.541282
C21   C     C_3   0.323673 0.791373 0.986301 -0.004861
C22   C     C_3   0.177665 0.145649 0.014308 -0.017445
C23   C     C_3   0.825075 0.290358 0.986169 -0.003908
C24   C     C_3   0.677918 0.645579 0.014439 -0.017399
C25   C     C_3   0.279569 0.757201 0.067988 0.527094
C26   C     C_3   0.139733 0.179511 0.098498 0.538456
C27   C     C_3   0.780982 0.255993 0.067706 0.526757
C28   C     C_3   0.640017 0.679484 0.098590 0.538313
C29   C     C_1   0.165843 0.652542 0.188374 0.233145
C30   C     C_1   0.095123 0.315982 0.213559 0.238867
C31   C     C_1   0.665937 0.152481 0.188372 0.233207
C32   C     C_1   0.595112 0.815978 0.213568 0.238806
C33   C     C_3   0.835743 0.253314 0.914361 -0.349360
C34   C     C_3   0.724326 0.689540 0.945459 -0.342797
C35   C     C_3   0.335703 0.753301 0.914334 -0.349335
C36   C     C_3   0.224339 0.189555 0.945447 -0.342807
C37   C     C_3   0.724053 0.228730 0.012528 0.130837
C38   C     C_3   0.639020 0.766964 0.021466 0.138048
C39   C     C_3   0.224349 0.727115 0.011246 0.131015
C40   C     C_3   0.139313 0.267288 0.021252 0.138066
C41   C     C_3   0.252421 0.702640 0.051861 -0.380975
C42   C     C_3   0.151663 0.248833 0.082479 -0.378150
C43   C     C_3   0.752508 0.202608 0.051880 -0.381102
C44   C     C_3   0.651646 0.748822 0.082498 -0.377931
C45   C     C_R   0.894430 0.422130 0.437810 0.470434
C46   C     C_R   0.912819 0.586181 0.414381 0.498321
C47   C     C_R   0.394410 0.922144 0.437840 0.470356
C48   C     C_R   0.412823 0.086182 0.414376 0.498328
C49   C     C_3   0.304502 0.656495 0.994187 0.148894
C50   C     C_3   0.219070 0.260992 0.045070 0.123197
C51   C     C_3   0.803674 0.155981 0.993236 0.149644
C52   C     C_3   0.719045 0.761294 0.044813 0.123322
C53   C     C_3   0.857011 0.189128 0.917140 0.178784
C54   C     C_3   0.760560 0.718540 0.972132 0.179371
C55   C     C_3   0.357714 0.689849 0.918190 0.179536
C56   C     C_3   0.260534 0.218213 0.972393 0.179515
C57   C     C_1   0.205782 0.674896 0.127228 0.255374
C58   C     C_1   0.115359 0.283388 0.157077 0.267339
C59   C     C_1   0.705883 0.174839 0.127235 0.255654
C60   C     C_1   0.615344 0.783380 0.157091 0.267377
C61   C     C_1   0.879110 0.283339 0.839100 0.276729
C62   C     C_1   0.766943 0.657819 0.869648 0.280892
C63   C     C_1   0.379092 0.783319 0.839078 0.276769
C64   C     C_1   0.266953 0.157832 0.869637 0.280712
C65   C     C_1   0.904686 0.314270 0.781352 0.167610
C66   C     C_1   0.807901 0.634936 0.808245 0.160883
C67   C     C_1   0.404683 0.814260 0.781340 0.167380
C68   C     C_1   0.307905 0.134943 0.808236 0.160805
C69   C     C_1   0.193921 0.641692 0.482741 0.043482
C70   C     C_1   0.197380 0.358080 0.476152 0.039155
C71   C     C_1   0.693878 0.141731 0.482832 0.043652
C72   C     C_1   0.697392 0.858092 0.476127 0.039205
C73   C     C_2   0.290052 0.694165 0.446651 -0.266812
C74   C     C_2   0.296496 0.311710 0.442260 -0.278810
C75   C     C_2   0.790021 0.194157 0.446775 -0.266747
C76   C     C_2   0.796510 0.811720 0.442229 -0.278653
C77   C     C_2   0.805376 0.245208 0.406088 0.354558
C78   C     C_2   0.828151 0.770896 0.383367 0.355437
C79   C     C_2   0.305262 0.745305 0.406174 0.354272
C80   C     C_2   0.328156 0.270906 0.383374 0.355485
C81   C     C_1   0.832660 0.288927 0.423191 0.048590
C82   C     C_1   0.859211 0.726651 0.394557 0.046143
C83   C     C_1   0.332559 0.788988 0.423296 0.048673
C84   C     C_1   0.359221 0.226658 0.394552 0.046165
C85   C     C_1   0.239298 0.662987 0.465034 0.164330
C86   C     C_1   0.243681 0.338434 0.458892 0.174349
C87   C     C_1   0.739254 0.163014 0.465144 0.164414
C88   C     C_1   0.743694 0.838446 0.458863 0.174356
C89   C     C_R   0.912684 0.652567 0.492226 0.257990
C90   C     C_R   0.903080 0.351801 0.503816 0.303244
C91   C     C_R   0.412690 0.152569 0.492220 0.257967
C92   C     C_R   0.403059 0.851812 0.503845 0.303210
C93   C     C_1   0.852250 0.324546 0.444043 0.205552
C94   C     C_1   0.878373 0.688818 0.413953 0.207399
C95   C     C_1   0.352175 0.824585 0.444137 0.205491
C96   C     C_1   0.378384 0.188822 0.413943 0.207408
C97   C     C_R   0.926264 0.346858 0.653824 -0.076053
C98   C     C_R   0.891337 0.633273 0.661827 -0.097757
C99   C     C_R   0.426269 0.846856 0.653817 -0.075978
C100  C     C_R   0.391338 0.133274 0.661823 -0.097756
C101  C     C_R   0.861042 0.610495 0.737793 -0.120254
C102  C     C_R   0.922824 0.356307 0.720829 -0.131183
C103  C     C_R   0.361041 0.110496 0.737787 -0.120224
C104  C     C_R   0.422833 0.856302 0.720818 -0.131347
C105  C     C_R   0.875595 0.366250 0.469487 -0.195831
C106  C     C_R   0.895066 0.643280 0.444619 -0.200508
C107  C     C_R   0.375557 0.866273 0.469542 -0.195845
C108  C     C_R   0.395074 0.143283 0.444611 -0.200577
C109  C     C_R   0.111554 0.429706 0.549248 -0.063185
C110  C     C_R   0.110207 0.570034 0.551787 -0.080842
C111  C     C_R   0.611561 0.929713 0.549234 -0.063167
C112  C     C_R   0.610187 0.070049 0.551822 -0.080796
C113  C     C_R   0.094275 0.570149 0.263490 0.476967
C114  C     C_R   0.063976 0.416992 0.276490 0.506520
C115  C     C_R   0.594308 0.070126 0.263488 0.476803
C116  C     C_R   0.563973 0.916991 0.276492 0.506438
C117  C     C_R   0.108067 0.638538 0.476606 -0.042909
C118  C     C_R   0.109864 0.362082 0.472112 -0.045989
C119  C     C_R   0.608045 0.138560 0.476651 -0.042763
C120  C     C_R   0.609868 0.862087 0.472102 -0.045940
H1    H     H_    0.803704 0.333680 0.990070 0.205197
H2    H     H_    0.646852 0.630676 0.001491 0.197453
H3    H     H_    0.301805 0.834090 0.989381 0.204938
H4    H     H_    0.146650 0.130997 0.001161 0.197442
H5    H     H_    0.892321 0.194615 0.925510 0.148294
H6    H     H_    0.773908 0.681601 0.994122 0.158009
H7    H     H_    0.392469 0.696596 0.927363 0.148218
H8    H     H_    0.273641 0.181107 0.994472 0.158137
H9    H     H_    0.321607 0.637335 0.025791 0.133542
H10   H     H_    0.226516 0.250930 0.090501 0.141540
H11   H     H_    0.821025 0.135685 0.023972 0.133672
H12   H     H_    0.726679 0.751446 0.090105 0.141376
H13   H     H_    0.806164 0.183175 0.481321 0.175828
H14   H     H_    0.802808 0.816419 0.488497 0.169852
H15   H     H_    0.306311 0.683103 0.481038 0.175871
H16   H     H_    0.302783 0.316392 0.488542 0.169857
H17   H     H_    0.928318 0.303278 0.630462 0.210036
H18   H     H_    0.875540 0.669148 0.644920 0.189351
H19   H     H_    0.428327 0.803278 0.630450 0.210075
H20   H     H_    0.375545 0.169151 0.644914 0.189332
H21   H     H_    0.122263 0.452223 0.584645 0.138732
H22   H     H_    0.120305 0.547377 0.587710 0.132884
H23   H     H_    0.622278 0.952236 0.584620 0.138702
H24   H     H_    0.620277 0.047393 0.587755 0.132917
H25   H     H_    0.118229 0.677893 0.441590 0.193278
H26   H     H_    0.121290 0.324577 0.432546 0.185838
H27   H     H_    0.618191 0.177930 0.441667 0.193339
H28   H     H_    0.621296 0.824584 0.432532 0.185834
H29   H     H_    0.195953 0.766403 0.047723 0.163473
H30   H     H_    0.095542 0.247644 0.043324 0.164004
H31   H     H_    0.696436 0.268180 0.049612 0.163811
H32   H     H_    0.595296 0.747098 0.043725 0.163744
N1    N     N_R   0.945170 0.558260 0.657960 -0.097747
N2    N     N_R   0.945170 0.441740 0.657960 -0.115258
N3    N     N_R   0.445170 0.058260 0.657960 -0.097716
N4    N     N_R   0.445170 0.941740 0.657960 -0.115277
N5    N     N_R   0.933380 0.440900 0.450980 -0.125848
N6    N     N_R   0.933380 0.559100 0.450980 -0.124591
N7    N     N_R   0.433380 0.940900 0.450980 -0.125834
N8    N     N_R   0.433380 0.059100 0.450980 -0.124610
N9    N     N_R   0.935930 0.600780 0.495700 -0.114982
N10   N     N_R   0.935930 0.399220 0.495700 -0.114084
N11   N     N_R   0.435930 0.100780 0.495700 -0.114992
N12   N     N_R   0.435930 0.899220 0.495700 -0.114085
N13   N     N_R   0.942620 0.398370 0.613240 -0.082246
N14   N     N_R   0.942620 0.601630 0.613240 -0.065915
N15   N     N_R   0.442620 0.898370 0.613240 -0.082262
N16   N     N_R   0.442620 0.101630 0.613240 -0.065909
N17   N     N_R   0.064810 0.441760 0.549020 -0.059207
N18   N     N_R   0.064810 0.558240 0.549020 -0.055012
N19   N     N_R   0.564810 0.941760 0.549020 -0.059198
N20   N     N_R   0.564810 0.058240 0.549020 -0.055029
N21   N     N_R   0.053030 0.555470 0.342040 -0.123381
N22   N     N_R   0.053030 0.444530 0.342040 -0.135362
N23   N     N_R   0.553030 0.055470 0.342040 -0.123325
N24   N     N_R   0.553030 0.944530 0.342040 -0.135379
N25   N     N_R   0.062260 0.600860 0.504300 -0.055627
N26   N     N_R   0.062260 0.399140 0.504300 -0.058921
N27   N     N_R   0.562260 0.100860 0.504300 -0.055670
N28   N     N_R   0.562260 0.899140 0.504300 -0.058923
N29   N     N_R   0.055570 0.396370 0.386760 -0.130971
N30   N     N_R   0.055570 0.603630 0.386760 -0.127424
N31   N     N_R   0.555570 0.896370 0.386760 -0.130995
N32   N     N_R   0.555570 0.103630 0.386760 -0.127395
Ni1   Ni    Ni4+2 0.004930 0.500000 0.602560 0.298514
Ni2   Ni    Ni4+2 0.504930 0.000000 0.602560 0.298533
Ni3   Ni    Ni4+2 0.993260 0.500000 0.397440 0.322620
Ni4   Ni    Ni4+2 0.493260 0.000000 0.397440 0.322640
Ni5   Ni    Ni4+2 0.999100 0.599910 0.500000 0.290659
Ni6   Ni    Ni4+2 0.999100 0.400090 0.500000 0.268023
Ni7   Ni    Ni4+2 0.499100 0.099910 0.500000 0.290655
Ni8   Ni    Ni4+2 0.499100 0.900090 0.500000 0.268022
Cl1   Cl    Cl    0.879386 0.531848 0.822152 -0.482488
Cl2   Cl    Cl    0.976634 0.434324 0.758530 -0.503428
Cl3   Cl    Cl    0.379374 0.031846 0.822157 -0.482737
Cl4   Cl    Cl    0.476629 0.934326 0.758535 -0.503076
Br1   Br    Br    0.749818 0.330169 0.913318 -0.372390
Br2   Br    Br    0.649188 0.704442 0.892617 -0.378107
Br3   Br    Br    0.249509 0.827435 0.910675 -0.374538
Br4   Br    Br    0.149577 0.205169 0.892107 -0.377598
Br5   Br    Br    0.397879 0.819431 0.966849 -0.232705
Br6   Br    Br    0.213730 0.069238 0.012725 -0.247346
Br7   Br    Br    0.900232 0.316452 0.965470 -0.234273
Br8   Br    Br    0.714351 0.569404 0.012752 -0.246565
Cl5   Cl    Cl    0.221858 0.808824 0.141946 -0.425457
Cl6   Cl    Cl    0.061339 0.162971 0.151633 -0.488375
Cl7   Cl    Cl    0.724405 0.307955 0.142647 -0.425137
Cl8   Cl    Cl    0.561663 0.662600 0.152021 -0.488671
Br9   Br    Br    0.317301 0.729230 0.117100 -0.308974
Br10  Br    Br    0.157155 0.152168 0.171934 -0.258305
Br11  Br    Br    0.819239 0.225918 0.115229 -0.310811
Br12  Br    Br    0.657809 0.652521 0.171780 -0.258545
Br13  Br    Br    0.901296 0.143123 0.815546 -0.252775
Br14  Br    Br    0.839911 0.751533 0.885927 -0.262786
Br15  Br    Br    0.403499 0.643311 0.816980 -0.252519
Br16  Br    Br    0.340085 0.250976 0.886422 -0.262119
Br17  Br    Br    0.277421 0.584713 0.970673 -0.175981
Br18  Br    Br    0.240866 0.346066 0.023135 -0.228988
Br19  Br    Br    0.774916 0.085528 0.969922 -0.174233
Br20  Br    Br    0.740492 0.846432 0.022759 -0.229423
Cl9   Cl    Cl    0.781984 0.205385 0.848915 -0.379366
Cl10  Cl    Cl    0.738186 0.794141 0.863364 -0.374544
Cl11  Cl    Cl    0.284078 0.702462 0.847480 -0.378181
Cl12  Cl    Cl    0.238817 0.294363 0.863318 -0.374306
Br21  Br    Br    0.661630 0.179988 0.022085 -0.177022
Br22  Br    Br    0.620761 0.852157 0.021395 -0.144628
Br23  Br    Br    0.163219 0.676616 0.019978 -0.175327
Br24  Br    Br    0.121446 0.352612 0.021154 -0.144207
Cl13  Cl    Cl    0.877536 0.455134 0.377920 -0.433968
Cl14  Cl    Cl    0.944515 0.572360 0.312565 -0.403538
Cl15  Cl    Cl    0.377517 0.955148 0.377949 -0.434047
Cl16  Cl    Cl    0.444522 0.072360 0.312559 -0.403178
Br25  Br    Br    0.275678 0.769647 0.347796 -0.280600
Br26  Br    Br    0.316957 0.256973 0.302516 -0.332321
Br27  Br    Br    0.776014 0.269414 0.347393 -0.279525
Br28  Br    Br    0.816928 0.756935 0.302536 -0.332535
Br29  Br    Br    0.932631 0.730481 0.508320 -0.379725
Br30  Br    Br    0.913175 0.270760 0.523297 -0.394461
Br31  Br    Br    0.432652 0.230479 0.508301 -0.379813
Br32  Br    Br    0.413145 0.770766 0.523321 -0.394434
Cl17  Cl    Cl    0.114702 0.532768 0.176149 -0.424828
Cl18  Cl    Cl    0.024233 0.434306 0.238380 -0.391345
Cl19  Cl    Cl    0.614693 0.032775 0.176151 -0.425191
Cl20  Cl    Cl    0.524226 0.934306 0.238387 -0.391213
Cl21  Cl    Cl    0.067255 0.273408 0.379424 -0.516196
Cl22  Cl    Cl    0.088575 0.722761 0.359526 -0.470827
Cl23  Cl    Cl    0.567241 0.773409 0.379436 -0.515935
Cl24  Cl    Cl    0.588624 0.222744 0.359486 -0.471228

loop_
_geom_bond_atom_site_label_1
_geom_bond_atom_site_label_2
_ccdc_geom_bond_type
N24   N31   A    
C116  Cl20  S    
C40   Br24  S    
C82   C94   T    
C1    C101  A    
N1    N14   A    
C24   Br8   S    
C10   C110  A    
C68   C103  S    
C34   C62   S    
C80   C84   S    
C43   C51   S    
N31   Ni8   S    
C42   C58   S    
C13   C113  A    
C39   C41   S    
C47   N7    A    
C53   Br13  S    
N15   Ni8   S    
C48   N8    A    
N16   Ni7   S    
C17   C33   S    
C6    N30   A    
C100  C103  A    
C64   C68   T    
C13   C29   S    
C76   C78   D    
C78   Br28  S    
C94   C106  S    
C55   Br15  S    
C48   C108  A    
C20   C40   S    
C97   N13   A    
C47   Cl15  S    
C2    C102  A    
C119  H27   S    
C46   N6    A    
C7    Cl23  S    
C77   Br27  S    
C5    Cl21  S    
C89   Br29  S    
C117  H25   S    
C84   C96   T    
C31   C59   T    
C110  H22   S    
C4    Cl4   S    
C20   Br4   S    
C115  N23   A    
C100  H20   S    
N6    N9    A    
C93   C105  S    
N23   Ni4   S    
C53   H5    S    
C41   C49   S    
C92   Br32  S    
C73   H15   S    
N20   Ni2   S    
C23   C33   S    
C74   H16   S    
C89   C106  A    
C18   Br2   S    
C6    Cl22  S    
C90   Br30  S    
C24   C34   S    
N2    N13   A    
C17   Br1   S    
N30   Ni5   S    
C23   C27   S    
C50   H10   S    
N17   Ni1   S    
C76   C88   S    
C39   Br23  S    
C97   C102  A    
C89   N9    A    
C43   C59   S    
C38   Br22  S    
C8    N32   A    
C37   Br21  S    
C99   C104  A    
C96   C108  S    
C2    N2    A    
C74   C80   D    
N6    Ni3   S    
C33   C53   S    
C9    C118  A    
C46   Cl14  S    
C66   C101  S    
C91   N11   A    
C26   Cl6   S    
C119  N27   A    
C65   C102  S    
C37   H31   S    
C25   Cl5   S    
C11   C120  A    
C16   C116  A    
N22   N29   A    
C97   H17   S    
C72   C88   T    
C109  N17   A    
C67   C104  S    
N24   Ni4   S    
C99   N15   A    
C9    C109  A    
N2    Ni1   S    
C63   C67   T    
C52   Br20  S    
C12   C112  A    
N25   Ni5   S    
C22   Br6   S    
N18   N25   A    
C11   C111  A    
C52   H12   S    
N8    N11   A    
C21   Br5   S    
C118  H26   S    
C62   C66   T    
C45   N5    A    
C9    C70   S    
C79   Br25  S    
C23   H1    S    
N28   Ni8   S    
C25   C41   S    
C76   H14   S    
C11   C72   S    
N4    Ni2   S    
N4    N15   A    
C51   Br19  S    
C14   C114  A    
C49   H9    S    
C15   C31   S    
C50   Br18  S    
C35   C55   S    
C50   C56   S    
C1    N1    A    
N11   Ni7   S    
C23   Br7   S    
C2    Cl2   S    
C48   Cl16  S    
N7    Ni4   S    
C21   H3    S    
C1    Cl1   S    
C10   C69   S    
C38   C44   S    
C36   C56   S    
C80   Br26  S    
N22   Ni3   S    
C12   C119  A    
C81   C93   T    
N29   Ni6   S    
C78   C82   S    
C92   C107  A    
C5    N29   A    
C77   C81   S    
N3    N16   A    
C83   C95   T    
C27   Br11  S    
N13   Ni6   S    
C20   Cl12  S    
N32   Ni7   S    
C40   H30   S    
N12   Ni8   S    
C26   Br10  S    
C17   C37   S    
C74   C86   S    
C25   Br9   S    
C18   C34   S    
C73   C85   S    
C5    C14   A    
C98   N14   A    
C99   H19   S    
C95   C107  S    
C42   C50   S    
C61   C65   T    
C115  Cl19  S    
C118  N26   A    
N20   N27   A    
N9    Ni5   S    
C7    C16   A    
C114  Cl18  S    
C12   C71   S    
C55   H7    S    
N21   N30   A    
C120  H28   S    
C8    C15   A    
C47   C107  A    
C46   C106  A    
C28   Cl8   S    
C71   C87   T    
N19   N28   A    
C90   N10   A    
C16   C32   S    
C3    N3    A    
C32   C60   T    
C70   C86   T    
C110  N18   A    
N17   N26   A    
N10   Ni6   S    
C69   C85   T    
C26   C42   S    
C113  N21   A    
C3    C103  A    
C54   Br14  S    
C21   C25   S    
N21   Ni3   S    
C51   H11   S    
N19   Ni2   S    
C4    N4    A    
N7    N12   A    
C19   Br3   S    
C91   C108  A    
C45   Cl13  S    
C24   C28   S    
C90   C105  A    
C29   C57   T    
C73   C79   D    
N3    Ni2   S    
C44   C52   S    
C109  H21   S    
C75   H13   S    
C22   H4    S    
C21   C35   S    
C111  H23   S    
C28   Br12  S    
C98   C101  A    
C22   C36   S    
C24   H2    S    
C39   H29   S    
C113  Cl17  S    
C7    N31   A    
C100  N16   A    
N14   Ni5   S    
C112  H24   S    
C18   C38   S    
C14   C30   S    
C38   H32   S    
C10   C117  A    
C19   C35   S    
C98   H18   S    
C6    C13   A    
C79   C83   S    
C54   H6    S    
C34   C54   S    
C92   N12   A    
C112  N20   A    
N1    Ni1   S    
C44   C60   S    
C33   C61   S    
N26   Ni6   S    
C30   C58   T    
N18   Ni1   S    
C40   C42   S    
C28   C44   S    
C52   C54   S    
C4    C104  A    
C15   C115  A    
C56   H8    S    
C49   C55   S    
C120  N28   A    
C18   Cl10  S    
C3    Cl3   S    
C56   Br16  S    
C17   Cl9   S    
C116  N24   A    
C41   C57   S    
C20   C36   S    
C19   Cl11  S    
C27   C43   S    
C114  N22   A    
N27   Ni7   S    
C8    Cl24  S    
C27   Cl7   S    
C19   C39   S    
C22   C26   S    
C75   C77   D    
C91   Br31  S    
C45   C105  A    
N8    Ni4   S    
N5    Ni3   S    
C35   C63   S    
C117  N25   A    
C51   C53   S    
C36   C64   S    
N5    N10   A    
C37   C43   S    
C49   Br17  S    
C75   C87   S    
N23   N32   A    
C111  N19   A    
