data_mof_unit_pretest_1836.cif
_audit_creation_date              2012-12-10T19:25:23-0500
_audit_creation_method            fapswitch 2.2
_symmetry_space_group_name_H-M    P1
_symmetry_Int_Tables_number       1
_space_group_crystal_system       triclinic
_cell_length_a                    18.766982
_cell_length_b                    18.708055
_cell_length_c                    18.670198
_cell_angle_alpha                 109.231858
_cell_angle_beta                  109.043148
_cell_angle_gamma                 109.547733
_cell_volume                      5082.42407702

loop_
_atom_site_label
_atom_site_type_symbol
_atom_type_description
_atom_site_fract_x
_atom_site_fract_y
_atom_site_fract_z
_atom_type_partial_charge
C1    C     C_R   0.880757 0.379972 0.000990 0.871147
C2    C     C_R   0.188111 0.502405 0.184446 -0.117505
C3    C     C_R   0.220346 0.445342 0.160448 -0.181790
C4    C     C_R   0.882125 0.501506 0.879962 0.919867
C5    C     C_R   0.283974 0.444583 0.224707 -0.215606
C6    C     C_R   0.314634 0.500281 0.312472 -0.023799
C7    C     C_R   0.282964 0.556033 0.333660 0.027695
C8    C     C_3   0.286805 0.622003 0.408107 -0.571503
C9    C     C_3   0.218386 0.625881 0.338358 0.363491
C10   C     C_R   0.259738 0.752921 0.077482 0.125769
C11   C     C_R   0.187023 0.684293 0.999115 -0.101026
C12   C     C_R   0.814310 0.313198 0.999544 -0.087206
C13   C     C_R   0.183851 0.673517 0.919935 -0.198914
C14   C     C_R   0.247860 0.738088 0.919877 -0.216970
C15   C     C_R   0.316114 0.811253 0.999170 -0.084613
C16   C     C_R   0.119668 0.619908 0.999243 0.882098
C17   C     C_R   0.324490 0.815262 0.077454 0.143921
C18   C     C_3   0.337722 0.887380 0.154928 -0.548464
C19   C     C_3   0.265842 0.818669 0.154614 -0.386363
C20   C     C_R   0.498522 0.380016 0.378069 0.862473
C21   C     C_R   0.615959 0.501544 0.618704 0.950460
C22   C     C_R   0.495820 0.619852 0.616288 0.912115
C23   C     C_R   0.820615 0.239652 0.996299 -0.205988
C24   C     C_R   0.378209 0.500564 0.378227 0.873814
C25   C     C_R   0.500366 0.879980 0.880824 0.880038
C26   C     C_R   0.619740 0.119835 0.999265 0.879084
C27   C     C_R   0.499026 0.119803 0.119374 0.868083
C28   C     C_R   0.120338 0.500894 0.119472 0.885649
C29   C     C_R   0.380249 0.879852 0.000375 0.866834
C30   C     C_R   0.525091 0.331430 0.256184 0.106682
C31   C     C_R   0.504133 0.315518 0.316395 -0.078385
C32   C     C_R   0.491909 0.238036 0.318044 -0.203834
C33   C     C_R   0.491378 0.173613 0.253261 -0.211290
C34   C     C_R   0.755848 0.174692 0.995273 -0.214467
C35   C     C_R   0.499482 0.185720 0.185475 -0.055827
C36   C     C_R   0.520369 0.266456 0.189842 0.080463
C37   C     C_3   0.482782 0.292946 0.125465 -0.122918
C38   C     C_3   0.489665 0.365625 0.200017 -0.478461
C39   C     C_R   0.563558 0.769704 0.732920 0.073093
C40   C     C_2   0.756034 0.576616 0.749504 -0.123410
C41   C     C_R   0.495525 0.684553 0.683082 -0.157044
C42   C     C_R   0.426323 0.662650 0.701279 -0.171521
C43   C     C_R   0.426664 0.726460 0.767239 0.077181
C44   C     C_R   0.497673 0.812284 0.815696 -0.079892
C45   C     C_R   0.683883 0.182413 0.994342 -0.084226
C46   C     C_R   0.564571 0.830526 0.796869 0.016160
C47   C     C_3   0.647722 0.902385 0.819698 -0.559214
C48   C     C_3   0.647427 0.832838 0.746411 0.363270
C49   C     C_2   0.679058 0.504849 0.691036 -0.335573
C50   C     C_2   0.817167 0.576854 0.822510 -0.161141
C51   C     C_2   0.821189 0.504233 0.811318 -0.332027
C52   C     C_R   0.738154 0.315051 0.989138 0.085058
C53   C     C_R   0.672662 0.249176 0.984645 0.117578
C54   C     C_3   0.649159 0.309360 0.034200 -0.576983
C55   C     C_3   0.722518 0.382981 0.040476 -0.079603
C56   C     C_R   0.223253 0.558471 0.272413 0.075706
H1    H     H_    0.773063 0.636193 0.745741 0.215688
H2    H     H_    0.658464 0.448448 0.700199 0.157018
H3    H     H_    0.320461 0.933953 0.139660 0.207541
H4    H     H_    0.289108 0.810053 0.212288 0.250586
H5    H     H_    0.206576 0.825073 0.138892 0.218615
H6    H     H_    0.480740 0.226648 0.367644 0.164487
H7    H     H_    0.480450 0.113067 0.253574 0.151261
H8    H     H_    0.525089 0.316676 0.099009 0.143731
H9    H     H_    0.539082 0.431598 0.219390 0.189609
H10   H     H_    0.426430 0.359550 0.193118 0.195607
H11   H     H_    0.371812 0.596870 0.664093 0.178451
H12   H     H_    0.196095 0.400915 0.092817 0.173629
H13   H     H_    0.861635 0.637495 0.883768 0.173349
H14   H     H_    0.638555 0.952449 0.804645 0.173834
H15   H     H_    0.699490 0.928218 0.886676 0.250595
H16   H     H_    0.640271 0.843798 0.690051 0.077187
H17   H     H_    0.783844 0.446548 0.747329 0.159327
H18   H     H_    0.877188 0.234678 0.998841 0.165992
H19   H     H_    0.762796 0.120087 0.997376 0.166688
H20   H     H_    0.583913 0.297453 0.992606 0.196489
H21   H     H_    0.659735 0.311558 0.097281 0.191457
H22   H     H_    0.700770 0.415973 0.005405 0.168967
H23   H     H_    0.308286 0.400514 0.206215 0.133625
H24   H     H_    0.811860 0.409770 0.160077 0.205194
H25   H     H_    0.773070 0.479349 0.164304 0.192932
H26   H     H_    0.377438 0.810701 0.347826 0.370168
H27   H     H_    0.393062 0.186664 0.005947 0.210960
H28   H     H_    0.363426 0.260799 0.035919 0.190451
H29   H     H_    0.379797 0.718447 0.849293 0.182798
H30   H     H_    0.326236 0.739965 0.773996 0.195176
H31   H     H_    0.768320 0.754325 0.867115 0.370938
H32   H     H_    0.261267 0.593318 0.443844 0.173443
H33   H     H_    0.351679 0.681822 0.449515 0.248944
H34   H     H_    0.154159 0.601997 0.335408 0.067839
H35   H     H_    0.129842 0.617955 0.858506 0.163513
H36   H     H_    0.242971 0.732164 0.858555 0.158038
H37   H     H_    0.402386 0.917934 0.212560 0.215121
N1    N     N_3   0.794706 0.443968 0.129546 -0.410121
N2    N     N_3   0.392589 0.228361 0.058977 -0.406790
N3    N     N_3   0.355352 0.702728 0.783953 -0.460224
O1    O     O_R   0.908050 0.460100 0.051390 -0.601954
O2    O     O_R   0.551950 0.908320 0.960240 -0.609705
O3    O     O_R   0.540220 0.091590 0.948580 -0.618900
O4    O     O_R   0.908730 0.356680 0.948620 -0.624833
O5    O     O_R   0.643000 0.091540 0.051310 -0.621427
O6    O     O_R   0.448050 0.091580 0.039660 -0.623051
O7    O     O_R   0.550830 0.091520 0.142390 -0.623086
O8    O     O_R   0.357000 0.908370 0.948590 -0.620622
O9    O     O_R   0.459780 0.908310 0.051320 -0.618077
O10   O     O_R   0.908630 0.551710 0.960350 -0.615860
O11   O     O_R   0.909310 0.448290 0.857570 -0.624093
O12   O     O_R   0.445680 0.356610 0.405790 -0.623268
O13   O     O_R   0.091270 0.643320 0.051380 -0.599428
O14   O     O_R   0.091950 0.539900 0.948610 -0.625731
O15   O     O_R   0.090690 0.551710 0.142430 -0.583161
O16   O     O_R   0.091370 0.448290 0.039650 -0.634890
O17   O     O_R   0.549120 0.460050 0.405790 -0.623238
O18   O     O_2   0.190212 0.728413 0.272280 -0.290376
O19   O     O_2   0.287717 0.799346 0.429094 -0.300540
O20   O     O_3   0.345182 0.746893 0.324133 -0.566383
O21   O     O_2   0.734332 0.750509 0.709346 -0.301550
O22   O     O_2   0.818181 0.893306 0.841260 -0.293271
O23   O     O_R   0.639540 0.551640 0.587850 -0.579484
O24   O     O_3   0.716701 0.761010 0.844567 -0.556933
O25   O     O_R   0.536110 0.448210 0.587860 -0.628777
O26   O     O_R   0.547900 0.643240 0.587840 -0.593075
O27   O     O_R   0.444470 0.539800 0.587850 -0.633660
O28   O     O_R   0.457480 0.551640 0.405780 -0.617418
O29   O     O_R   0.354050 0.448210 0.405780 -0.625360
O30   O     O_R   0.449170 0.908380 0.857510 -0.626528
S1    S     S_3+6 0.259701 0.728614 0.341236 0.017797
S2    S     S_3+6 0.732868 0.809636 0.785506 0.018707
Zn1   Zn    Zn3+2 0.999540 0.569060 0.068630 1.039790
Zn2   Zn    Zn3+2 0.000460 0.430940 0.931370 0.968247
Zn3   Zn    Zn3+2 0.565860 0.568990 0.496810 1.033671
Zn4   Zn    Zn3+2 0.427730 0.430860 0.496820 0.971726
Zn5   Zn    Zn3+2 0.431370 0.999990 0.931350 0.963348
Zn6   Zn    Zn3+2 0.568630 0.999910 0.068550 0.977113

loop_
_geom_bond_atom_site_label_1
_geom_bond_atom_site_label_2
_ccdc_geom_bond_type
O10   Zn1   S    
O18   S1    D    
O27   Zn4   S    
C41   C42   A    
C3    H12   S    
C25   O30   A    
C21   C49   S    
C16   O14   A    
C7    C8    S    
C39   C41   A    
O5    Zn6   S    
C28   O16   A    
C12   C23   A    
C30   C38   S    
C9    S1    S    
C36   C37   S    
C50   H13   S    
C55   N1    S    
C26   O5    A    
C30   C31   A    
H29   N3    S    
O4    Zn2   S    
C22   C41   S    
C42   H11   S    
C10   C17   A    
C40   C49   D    
C24   O28   A    
O19   S1    D    
C37   N2    S    
C18   C19   S    
C26   C45   S    
C54   C55   S    
O15   Zn1   S    
C35   C36   A    
O30   Zn5   S    
C8    C9    S    
O20   S1    S    
O23   Zn3   S    
C22   O26   A    
C5    H23   S    
C52   C55   S    
C26   O3    A    
C54   H21   S    
C45   C53   A    
C13   C14   A    
C13   H35   S    
C21   O25   A    
C29   O9    A    
C1    C12   S    
O22   S2    D    
C7    C56   A    
C48   H16   S    
O11   Zn2   S    
C1    O4    A    
C12   C52   A    
C44   C46   A    
C16   O13   A    
C15   C29   S    
C28   O15   A    
C4    O11   A    
O8    Zn5   S    
C4    C51   S    
C38   H10   S    
C22   O27   A    
C1    O1    A    
C9    C56   S    
C55   H22   S    
C50   C51   D    
C53   C54   S    
C4    O10   A    
C49   H2    S    
C29   O8    A    
C23   H18   S    
C8    H32   S    
H28   N2    S    
C43   C44   A    
C47   H14   S    
C37   C38   S    
C48   S2    S    
C43   N3    S    
C11   C16   S    
C18   H3    S    
C47   C48   S    
C38   H9    S    
C10   C19   S    
C33   H7    S    
C23   C34   A    
C6    C24   S    
C17   C18   S    
C34   C45   A    
H27   N2    S    
C14   H36   S    
H30   N3    S    
C39   C46   A    
C54   H20   S    
O13   Zn1   S    
C24   O29   A    
C42   C43   A    
C47   H15   S    
O25   Zn4   S    
H24   N1    S    
O26   Zn3   S    
C37   H8    S    
C52   C53   A    
C15   C17   A    
C46   C47   S    
C40   H1    S    
O17   Zn3   S    
O7    Zn6   S    
C31   C32   A    
C51   H17   S    
C3    C5    A    
C9    H34   S    
O24   S2    S    
C6    C7    A    
C19   H4    S    
O2    Zn6   S    
C27   O6    A    
C30   C36   A    
C27   C35   S    
C32   C33   A    
C2    C3    A    
O6    Zn5   S    
H26   O20   S    
H31   O24   S    
C21   O23   A    
C2    C56   A    
H25   N1    S    
C11   C13   A    
O29   Zn4   S    
C5    C6    A    
C19   H5    S    
C40   C50   S    
C27   O7    A    
C33   C35   A    
O14   Zn2   S    
C25   C44   S    
C20   O17   A    
O21   S2    D    
O12   Zn4   S    
C10   C11   A    
O1    Zn1   S    
C25   O2    A    
C34   H19   S    
O28   Zn3   S    
O3    Zn5   S    
C18   H37   S    
C14   C15   A    
C39   C48   S    
C2    C28   S    
C8    H33   S    
C32   H6    S    
O16   Zn2   S    
O9    Zn6   S    
C20   O12   A    
C20   C31   S    
