data_mof_unit_pretest_1174.cif
_audit_creation_date              2013-03-05T15:45:56-0500
_audit_creation_method            fapswitch 2.2
_symmetry_space_group_name_H-M    P1
_symmetry_Int_Tables_number       1
_space_group_crystal_system       triclinic
_cell_length_a                    20.994616
_cell_length_b                    7.283809
_cell_length_c                    20.384125
_cell_angle_alpha                 89.564123
_cell_angle_beta                  102.108752
_cell_angle_gamma                 90.617766
_cell_volume                      3047.58047431

loop_
_atom_site_label
_atom_site_type_symbol
_atom_site_description
_atom_site_fract_x
_atom_site_fract_y
_atom_site_fract_z
_atom_type_partial_charge
O1    O     O_R   0.673670 0.377510 0.185950 -0.597972
O2    O     O_R   0.326330 0.622490 0.814050 -0.594151
O3    O     O_R   0.826330 0.877510 0.314050 -0.598853
O4    O     O_R   0.173670 0.122490 0.685950 -0.596435
O5    O     O_R   0.806260 0.705340 0.185590 -0.600437
O6    O     O_R   0.193740 0.294660 0.814410 -0.604910
O7    O     O_R   0.693740 0.205340 0.314410 -0.595862
O8    O     O_R   0.306260 0.794660 0.685590 -0.597875
C1    C     C_R   0.825862 0.538751 0.171129 0.953157
C2    C     C_R   0.173348 0.460575 0.828583 0.965052
C3    C     C_R   0.674117 0.036758 0.329051 0.954752
C4    C     C_R   0.325886 0.963126 0.670919 0.949786
O9    O     O_R   0.672940 0.707120 0.178050 -0.585013
O10   O     O_R   0.327060 0.292880 0.821950 -0.586821
O11   O     O_R   0.827060 0.207120 0.321950 -0.586221
O12   O     O_R   0.172940 0.792880 0.678050 -0.586925
O13   O     O_R   0.692060 0.879040 0.306460 -0.572130
O14   O     O_R   0.307940 0.120960 0.693540 -0.573459
O15   O     O_R   0.807940 0.379040 0.193540 -0.576840
O16   O     O_R   0.192060 0.620960 0.806460 -0.565429
C5    C     C_R   0.650287 0.538218 0.159916 0.946196
C6    C     C_R   0.350406 0.462235 0.839426 0.949609
C7    C     C_R   0.850789 0.038798 0.338758 0.934662
C8    C     C_R   0.150325 0.961414 0.659846 0.947338
O17   O     O_3   0.756430 0.544390 0.292140 -0.287250
O18   O     O_3   0.243570 0.455610 0.707860 -0.289420
O19   O     O_3   0.743570 0.044390 0.207860 -0.289823
O20   O     O_3   0.256430 0.955610 0.792140 -0.286894
V1    V     V_3+5 0.748810 0.818610 0.242180 1.164742
V2    V     V_3+5 0.251190 0.181390 0.757820 1.162134
V3    V     V_3+5 0.751190 0.318610 0.257820 1.163558
V4    V     V_3+5 0.248810 0.681390 0.742180 1.168778
C9    C     C_R   0.088710 0.972102 0.607713 -0.212876
C10   C     C_R   0.912455 0.027163 0.390612 -0.215763
C11   C     C_R   0.412563 0.476357 0.891231 -0.215979
C12   C     C_R   0.588767 0.527135 0.107716 -0.217418
C13   C     C_R   0.029958 0.983122 0.420677 -0.261058
C14   C     C_R   0.970511 0.005504 0.578760 -0.268994
C15   C     C_R   0.469989 0.522842 0.077709 -0.269280
C16   C     C_R   0.531251 0.486827 0.920440 -0.266864
C17   C     C_R   0.973102 0.009863 0.371555 0.007929
C18   C     C_R   0.028379 0.987218 0.627065 0.014335
C19   C     C_R   0.527854 0.527274 0.126696 0.015579
C20   C     C_R   0.473181 0.472250 0.872027 0.010530
C21   C     C_R   0.911319 0.023053 0.459940 -0.070678
C22   C     C_R   0.089419 0.971904 0.538651 -0.076786
C23   C     C_R   0.590171 0.515783 0.038814 -0.076668
C24   C     C_R   0.411874 0.507149 0.959446 -0.079732
C25   C     C_R   0.970240 0.005834 0.509502 0.132540
C26   C     C_R   0.030161 0.986248 0.489572 0.130729
C27   C     C_R   0.531148 0.503117 0.989384 0.137025
C28   C     C_R   0.470646 0.511057 0.008984 0.128939
H1    H     H_    0.074909 0.962655 0.403790 0.150408
H2    H     H_    0.925629 0.017886 0.596481 0.147482
H3    H     H_    0.424151 0.524861 0.094142 0.140538
H4    H     H_    0.576550 0.486003 0.903090 0.147552
C29   C     C_3   0.551834 0.102599 0.520557 0.703464
C30   C     C_3   0.447802 0.895135 0.478792 0.704152
C31   C     C_3   0.952310 0.592685 0.980189 0.698858
C32   C     C_3   0.053248 0.382542 0.030083 0.686727
C33   C     C_3   0.532791 0.933090 0.559027 -0.139908
C34   C     C_3   0.466854 0.064639 0.440335 -0.139942
C35   C     C_3   0.970070 0.416076 0.946589 -0.139024
C36   C     C_3   0.034603 0.559148 0.064024 -0.142341
H5    H     H_    0.533232 0.678195 0.490848 0.163503
H6    H     H_    0.466372 0.319607 0.508194 0.163747
H7    H     H_    0.962911 0.176844 0.023318 0.166646
H8    H     H_    0.039864 0.803593 0.989568 0.169225
C37   C     C_1   0.372673 0.978684 0.626255 -0.288770
C38   C     C_1   0.627217 0.020497 0.373527 -0.291778
C39   C     C_1   0.126876 0.467887 0.874161 -0.309547
C40   C     C_1   0.872870 0.526846 0.127274 -0.286758
C41   C     C_3   0.480842 0.174080 0.506723 -0.452126
C42   C     C_3   0.518804 0.823666 0.492609 -0.451360
C43   C     C_3   0.024172 0.659519 0.994846 -0.459600
C44   C     C_3   0.980803 0.317649 0.015647 -0.394121
C45   C     C_3   0.461257 0.002270 0.545065 -0.011417
C46   C     C_3   0.538360 0.995463 0.454300 -0.011001
C47   C     C_3   0.042723 0.479838 0.960853 -0.013854
C48   C     C_3   0.962385 0.495741 0.048512 -0.010947
C49   C     C_1   0.412498 0.992402 0.589974 0.074756
C50   C     C_1   0.587241 0.005947 0.409583 0.075848
C51   C     C_1   0.089047 0.473227 0.913017 0.015337
C52   C     C_1   0.912993 0.511697 0.091864 0.076411
C53   C     C_R   0.151844 0.963970 0.516738 0.093018
C54   C     C_R   0.178621 0.793286 0.506934 -0.165358
C55   C     C_R   0.227238 0.782829 0.469715 -0.088829
C56   C     C_R   0.248522 0.942221 0.441931 -0.055434
C57   C     C_R   0.223999 0.113224 0.454351 -0.163569
C58   C     C_R   0.176231 0.124482 0.492250 -0.140034
H9    H     H_    0.159232 0.668239 0.524593 0.121829
H10   H     H_    0.246389 0.650652 0.460050 0.118567
H11   H     H_    0.282757 0.932671 0.409441 0.148710
H12   H     H_    0.239674 0.236831 0.432476 0.104482
H13   H     H_    0.154875 0.256395 0.498359 0.114009
C59   C     C_R   0.848871 0.032493 0.481686 0.096478
C60   C     C_R   0.823215 0.871914 0.504741 -0.138054
C61   C     C_R   0.775042 0.883406 0.542148 -0.162460
C62   C     C_R   0.751417 0.054835 0.555504 -0.054221
C63   C     C_R   0.773974 0.214541 0.529086 -0.089812
C64   C     C_R   0.822998 0.203769 0.492390 -0.161107
H14   H     H_    0.843801 0.739432 0.497852 0.114861
H15   H     H_    0.758361 0.759460 0.562942 0.105364
H16   H     H_    0.716874 0.064433 0.587648 0.149667
H17   H     H_    0.755461 0.347012 0.539405 0.117546
H18   H     H_    0.843307 0.328778 0.475755 0.121317
C65   C     C_R   0.349931 0.553206 0.977197 0.110679
C66   C     C_R   0.304644 0.414650 0.981625 -0.185296
C67   C     C_R   0.243894 0.460812 0.992819 -0.160189
C68   C     C_R   0.228057 0.645156 0.999553 -0.084209
C69   C     C_R   0.273783 0.783614 0.996644 -0.105422
C70   C     C_R   0.334910 0.737818 0.985448 -0.118445
H19   H     H_    0.315771 0.272146 0.974579 0.118786
H20   H     H_    0.208385 0.352901 0.993152 0.159128
H21   H     H_    0.179865 0.681106 0.005249 0.109247
H22   H     H_    0.261422 0.925999 0.001702 0.104939
H23   H     H_    0.369905 0.845664 0.981609 0.109724
C71   C     C_R   0.652897 0.521330 0.017491 0.094992
C72   C     C_R   0.677933 0.358693 0.997318 -0.137234
C73   C     C_R   0.727284 0.366684 0.961190 -0.161139
C74   C     C_R   0.752665 0.536724 0.946305 -0.062204
C75   C     C_R   0.730513 0.698615 0.969811 -0.091952
C76   C     C_R   0.680355 0.691294 0.005186 -0.164707
H24   H     H_    0.656192 0.227197 0.005539 0.114900
H25   H     H_    0.743612 0.240835 0.942715 0.106407
H26   H     H_    0.788322 0.543940 0.915273 0.152911
H27   H     H_    0.750377 0.829900 0.958323 0.120899
H28   H     H_    0.660591 0.817819 0.019745 0.119731
C77   C     C_R   0.024344 0.962261 0.697648 0.092113
C78   C     C_R   0.993129 0.805265 0.716014 -0.141173
C79   C     C_R   0.998585 0.762507 0.783470 -0.133428
C80   C     C_R   0.036273 0.872559 0.832619 -0.082971
C81   C     C_R   0.065663 0.031561 0.814876 -0.073602
C82   C     C_R   0.057772 0.080712 0.747455 -0.160572
H29   H     H_    0.966715 0.712794 0.678263 0.112850
H30   H     H_    0.974862 0.642107 0.797368 0.112140
H31   H     H_    0.042857 0.835505 0.884430 0.113073
H32   H     H_    0.094158 0.115829 0.853670 0.130167
H33   H     H_    0.079116 0.207518 0.733988 0.130205
C83   C     C_R   0.981485 0.034086 0.301597 0.111331
C84   C     C_R   0.030391 0.154717 0.289595 -0.165683
C85   C     C_R   0.045600 0.164257 0.226670 -0.120336
C86   C     C_R   0.009142 0.065599 0.173253 -0.051021
C87   C     C_R   0.958930 0.949770 0.183780 -0.100919
C88   C     C_R   0.946983 0.927710 0.248350 -0.150636
H34   H     H_    0.058791 0.236261 0.329797 0.113347
H35   H     H_    0.086366 0.247258 0.220463 0.112109
H36   H     H_    0.021659 0.072741 0.124632 0.145877
H37   H     H_    0.931676 0.870666 0.142534 0.133803
H38   H     H_    0.913333 0.822457 0.257011 0.140763
C89   C     C_R   0.476836 0.454377 0.800998 0.101125
C90   C     C_R   0.511649 0.309701 0.780977 -0.143268
C91   C     C_R   0.510321 0.284224 0.713151 -0.133026
C92   C     C_R   0.472489 0.397037 0.665159 -0.075896
C93   C     C_R   0.439050 0.543030 0.684638 -0.072261
C94   C     C_R   0.443632 0.577312 0.752545 -0.168357
H39   H     H_    0.538842 0.215591 0.817551 0.110980
H40   H     H_    0.537976 0.176232 0.697856 0.112625
H41   H     H_    0.469391 0.373717 0.612907 0.108259
H42   H     H_    0.410874 0.630894 0.646895 0.133023
H43   H     H_    0.420952 0.698339 0.767237 0.131209
C95   C     C_R   0.523629 0.542421 0.197761 0.100682
C96   C     C_R   0.489142 0.687431 0.218193 -0.142904
C97   C     C_R   0.490356 0.711781 0.286068 -0.132803
C98   C     C_R   0.527923 0.597896 0.333817 -0.075901
C99   C     C_R   0.561037 0.451749 0.313964 -0.071887
C100  C     C_R   0.556418 0.418236 0.245957 -0.166456
H44   H     H_    0.462366 0.782972 0.181907 0.111744
H45   H     H_    0.462903 0.819904 0.301631 0.112475
H46   H     H_    0.531092 0.620575 0.386174 0.107898
H47   H     H_    0.589064 0.363439 0.351567 0.132937
H48   H     H_    0.578865 0.297097 0.231028 0.131545
C101  C     C_R   0.574784 0.850378 0.621402 0.172500
C102  C     C_R   0.636659 0.785894 0.618238 -0.160224
C103  C     C_R   0.678214 0.715214 0.675389 -0.177808
C104  C     C_R   0.657442 0.703405 0.736006 -0.081812
C105  C     C_R   0.595080 0.761642 0.739288 -0.090869
C106  C     C_R   0.553732 0.833206 0.682147 -0.183801
H49   H     H_    0.652017 0.789006 0.570920 0.129874
H50   H     H_    0.726170 0.667449 0.672480 0.111180
H51   H     H_    0.689399 0.647913 0.780214 0.104115
H52   H     H_    0.578750 0.751468 0.786157 0.113750
H53   H     H_    0.505859 0.876646 0.686218 0.114956
C107  C     C_R   0.424915 0.147420 0.377953 0.171820
C108  C     C_R   0.363135 0.212795 0.381106 -0.158530
C109  C     C_R   0.321641 0.283313 0.323882 -0.178122
C110  C     C_R   0.342371 0.294074 0.263232 -0.084193
C111  C     C_R   0.404642 0.234989 0.259974 -0.088026
C112  C     C_R   0.445919 0.163516 0.317158 -0.183793
H54   H     H_    0.347754 0.210336 0.428436 0.130696
H55   H     H_    0.273752 0.331831 0.326718 0.108154
H56   H     H_    0.310444 0.349406 0.218987 0.099237
H57   H     H_    0.420968 0.244451 0.213086 0.111625
H58   H     H_    0.493733 0.119502 0.313100 0.114206
C113  C     C_R   0.927600 0.327342 0.885687 0.171043
C114  C     C_R   0.865124 0.265833 0.889734 -0.148665
C115  C     C_R   0.822256 0.196346 0.833199 -0.178327
C116  C     C_R   0.842510 0.180842 0.772522 -0.091444
C117  C     C_R   0.905604 0.234431 0.768568 -0.095754
C118  C     C_R   0.948103 0.305899 0.824991 -0.186834
H59   H     H_    0.850189 0.271549 0.937191 0.126431
H60   H     H_    0.773763 0.151530 0.836665 0.112806
H61   H     H_    0.809600 0.125831 0.728836 0.106067
H62   H     H_    0.921481 0.221538 0.721635 0.115518
H63   H     H_    0.996348 0.346248 0.820322 0.120802
C119  C     C_R   0.070505 0.648285 0.128476 0.155447
C120  C     C_R   0.121179 0.775846 0.127703 -0.147595
C121  C     C_R   0.157404 0.847856 0.187629 -0.111105
C122  C     C_R   0.142873 0.795606 0.248932 -0.088834
C123  C     C_R   0.091412 0.673635 0.250236 -0.103278
C124  C     C_R   0.055154 0.601545 0.190347 -0.182808
H64   H     H_    0.133040 0.819745 0.081013 0.127915
H65   H     H_    0.196632 0.944685 0.186517 0.108778
H66   H     H_    0.170756 0.851881 0.295273 0.104000
H67   H     H_    0.079315 0.635632 0.297632 0.110074
H68   H     H_    0.015183 0.509380 0.192663 0.129043
O21   O     O_3   0.609227 0.210403 0.535402 -0.638567
C125  C     C_3   0.612807 0.307098 0.595237 -0.312962
H69   H     H_    0.615296 0.212197 0.638353 0.148570
H70   H     H_    0.572464 0.406437 0.590678 0.167640
H71   H     H_    0.658942 0.387034 0.605037 0.178723
O22   O     O_3   0.390512 0.786968 0.463712 -0.638036
C126  C     C_3   0.386967 0.692090 0.403481 -0.313640
H72   H     H_    0.427382 0.593153 0.407630 0.167713
H73   H     H_    0.384463 0.788254 0.360689 0.148780
H74   H     H_    0.340881 0.611968 0.393377 0.178590
O23   O     O_3   0.896528 0.702344 0.960660 -0.641646
C127  C     C_3   0.896150 0.786752 0.898590 -0.297092
H75   H     H_    0.898710 0.684949 0.859232 0.144935
H76   H     H_    0.935325 0.892248 0.903216 0.174440
H77   H     H_    0.848876 0.856541 0.882488 0.181493
O24   O     O_3   0.101895 0.249159 0.051207 -0.637187
C128  C     C_3   0.153968 0.320356 0.099483 -0.323715
H78   H     H_    0.141436 0.325415 0.149080 0.156707
H79   H     H_    0.169383 0.458813 0.086310 0.147381
H80   H     H_    0.196210 0.227615 0.103700 0.167250

loop_
_geom_bond_atom_site_label_1
_geom_bond_atom_site_label_2
_geom_bond_distance
_ccdc_geom_bond_type
C30   C34   1.550812 S    
C109  H55   1.082325 S    
C55   C56   1.397589 A    
C32   C47   1.549147 S    
O1    C5    1.336598 A    
C98   C99   1.385927 A    
O19   V1    1.777675 S    
O13   V1    2.001297 S    
C65   C70   1.403834 A    
C75   H27   1.082655 S    
O3    C7    1.336031 A    
C96   C97   1.391115 A    
C1    C40   1.467604 S    
C4    C37   1.475739 S    
O15   V3    1.991233 S    
C127  H76   1.109395 S    
C60   C61   1.391984 A    
C30   O22   1.410682 S    
C126  H74   1.106889 S    
C125  H69   1.106919 S    
C58   H13   1.083638 S    
C5    C12   1.493108 S    
C35   C47   1.558067 S    
C72   H24   1.083526 S    
C107  C108  1.400684 A    
H8    C43   1.107730 S    
O7    C3    1.342271 A    
C6    C11   1.499767 S    
C63   H17   1.082502 S    
C118  H63   1.074678 S    
C9    C18   1.409030 A    
O9    V1    2.005047 S    
C97   C98   1.391849 A    
C86   C87   1.393592 A    
C14   C18   1.401045 A    
C24   C28   1.421241 A    
C54   H9    1.083215 S    
C123  C124  1.398851 A    
C53   C54   1.402704 A    
C70   H23   1.083378 S    
O4    C8    1.336990 A    
C24   C65   1.464024 S    
C35   C44   1.549640 S    
C61   H15   1.080283 S    
O1    V3    1.996060 S    
C66   C67   1.387205 A    
C12   C23   1.414054 A    
O2    V4    1.996063 S    
C29   C41   1.552474 S    
C91   H40   1.068893 S    
O3    V1    1.993308 S    
C71   C72   1.400069 A    
O24   C128  1.405955 S    
C17   C83   1.482070 S    
C30   C45   1.537837 S    
C102  C103  1.399105 A    
C119  C124  1.404265 A    
C1    O15   1.325945 A    
C23   C71   1.470887 S    
C15   H3    1.083589 S    
C108  C109  1.399144 A    
O23   C127  1.401062 S    
C2    O16   1.333725 A    
C80   C81   1.387316 A    
C16   H4    1.082060 S    
O2    C6    1.333944 A    
C65   C66   1.394481 A    
C34   C41   1.548434 S    
C116  C117  1.395241 A    
O14   V2    2.001294 S    
C45   C49   1.510510 S    
C119  C120  1.407429 A    
C31   O23   1.409871 S    
C128  H78   1.097762 S    
C67   C68   1.401383 A    
O5    V1    2.021325 S    
C60   H14   1.083599 S    
C48   C52   1.502777 S    
C22   C53   1.472471 S    
C13   H1    1.082344 S    
C2    C39   1.483279 S    
O11   C7    1.343081 A    
C124  H68   1.077538 S    
C89   C90   1.399838 A    
C81   H32   1.077487 S    
O12   C8    1.342301 A    
C32   O24   1.415240 S    
C59   C64   1.402678 A    
C9    C22   1.410972 A    
C36   C48   1.548584 S    
C97   H45   1.069285 S    
O22   C126  1.401431 S    
C10   C17   1.414083 A    
O10   V2    2.005045 S    
C11   C24   1.413241 A    
C112  H58   1.076787 S    
C127  H75   1.106517 S    
C113  C118  1.402951 A    
C39   C51   1.234770 T    
C104  H51   1.082686 S    
C3    C38   1.475059 S    
C20   C89   1.472691 S    
O7    V3    2.003470 S    
C27   C28   1.411141 A    
O8    V4    2.003470 S    
C44   C48   1.553624 S    
C108  H54   1.079685 S    
C33   C101  1.512069 S    
C83   C84   1.403123 A    
C126  H72   1.108421 S    
C79   H30   1.069301 S    
C111  H57   1.082437 S    
C33   C45   1.557316 S    
C82   H33   1.080783 S    
C14   C25   1.410565 A    
C56   H11   1.077760 S    
C73   H25   1.079728 S    
C121  C122  1.396302 A    
C15   C19   1.401689 A    
C113  C114  1.400043 A    
O21   C125  1.401000 S    
C101  C102  1.400372 A    
H6    C41   1.108160 S    
C36   C119  1.517483 S    
C32   C44   1.556327 S    
H5    C42   1.108069 S    
C120  C121  1.398940 A    
C74   H26   1.077321 S    
C111  C112  1.399093 A    
C66   H19   1.083592 S    
C31   C48   1.532212 S    
C106  H53   1.076755 S    
O5    C1    1.340032 A    
C87   H37   1.079210 S    
C8    C9    1.494301 S    
C46   C50   1.509815 S    
C125  H70   1.108501 S    
C103  C104  1.395720 A    
C14   H2    1.082421 S    
C21   C25   1.429591 A    
O8    C4    1.341694 A    
C7    C10   1.492479 S    
C59   C60   1.401163 A    
C116  H61   1.082703 S    
C122  C123  1.395802 A    
C92   C93   1.385925 A    
O9    C5    1.340485 A    
C115  H60   1.081999 S    
C68   C69   1.394382 A    
C10   C21   1.418469 A    
C89   C94   1.405134 A    
C56   C57   1.397806 A    
C72   C73   1.391916 A    
O11   V3    2.010894 S    
C11   C20   1.408470 A    
C128  H79   1.104174 S    
C74   C75   1.396511 A    
C40   C52   1.225163 T    
C99   H47   1.076539 S    
C84   H34   1.083803 S    
C105  C106  1.399383 A    
C67   H20   1.078437 S    
C104  C105  1.395607 A    
O6    V2    2.021328 S    
C78   H29   1.083582 S    
C94   H43   1.080006 S    
C25   C26   1.409676 A    
C81   C82   1.393776 A    
C35   C113  1.513041 S    
C79   C80   1.392226 A    
C57   C58   1.391783 A    
C31   C43   1.549096 S    
C64   H18   1.083258 S    
C73   C74   1.399236 A    
C30   C42   1.552662 S    
C125  H71   1.107012 S    
O17   V3    1.785313 S    
C95   C96   1.401086 A    
O16   V4    1.991235 S    
C98   H46   1.069295 S    
C90   H39   1.083386 S    
C3    O13   1.328101 A    
C62   H16   1.077618 S    
C69   C70   1.394123 A    
C77   C82   1.403228 A    
C93   H42   1.077571 S    
C54   C55   1.396648 A    
C31   C35   1.547186 S    
C29   C46   1.537559 S    
C34   C46   1.556760 S    
C88   H38   1.075456 S    
C114  C115  1.399341 A    
C83   C88   1.404974 A    
C57   H12   1.080173 S    
C23   C27   1.426325 A    
C53   C58   1.401299 A    
C126  H73   1.107471 S    
C29   C33   1.550916 S    
C100  H48   1.080035 S    
O18   V4    1.785311 S    
C33   C42   1.548888 S    
O12   V4    2.010894 S    
C16   C27   1.411716 A    
C22   C26   1.427798 A    
C77   C78   1.399125 A    
C122  H66   1.082463 S    
C62   C63   1.397512 A    
C32   C36   1.557120 S    
C69   H22   1.082690 S    
O10   C6    1.345059 A    
O20   V2    1.777677 S    
C78   C79   1.388885 A    
C109  C110  1.395521 A    
C96   H44   1.083310 S    
C92   H41   1.068177 S    
C84   C85   1.386380 A    
C47   C51   1.516099 S    
C13   C26   1.403830 A    
C76   H28   1.083351 S    
C117  H62   1.082132 S    
C99   C100  1.392461 A    
C29   O21   1.410766 S    
C101  C106  1.403663 A    
C85   H35   1.071028 S    
C63   C64   1.396654 A    
C36   C43   1.558560 S    
C110  H56   1.082506 S    
C15   C28   1.407135 A    
C18   C77   1.468708 S    
C117  C118  1.399447 A    
C71   C76   1.402994 A    
C120  H64   1.078487 S    
C13   C17   1.402140 A    
C115  C116  1.395396 A    
C38   C50   1.229440 T    
C128  H80   1.109170 S    
C86   H36   1.078069 S    
C37   C49   1.229836 T    
O6    C2    1.339982 A    
C123  H67   1.082525 S    
C103  H50   1.082201 S    
C34   C107  1.511897 S    
C95   C100  1.404786 A    
C19   C95   1.474788 S    
C87   C88   1.398398 A    
C16   C20   1.401967 A    
C90   C91   1.390799 A    
C68   H21   1.077579 S    
C121  H65   1.082267 S    
C61   C62   1.398028 A    
C42   C46   1.566126 S    
C4    O14   1.329107 A    
C93   C94   1.391600 A    
C75   C76   1.395874 A    
C41   C45   1.566805 S    
C85   C86   1.392210 A    
C12   C19   1.411648 A    
C110  C111  1.395631 A    
H7    C44   1.109642 S    
C80   H31   1.068919 S    
C114  H59   1.078900 S    
C55   H10   1.082515 S    
C21   C59   1.471857 S    
C43   C47   1.575662 S    
C102  H49   1.079243 S    
C107  C112  1.403542 A    
C127  H77   1.105819 S    
O4    V2    1.993307 S    
C105  H52   1.082403 S    
C91   C92   1.392465 A    
