data_mof_unit_pretest_1377.cif
_audit_creation_date              2012-12-11T17:41:24-0500
_audit_creation_method            fapswitch 2.2
_symmetry_space_group_name_H-M    P1
_symmetry_Int_Tables_number       1
_space_group_crystal_system       triclinic
_cell_length_a                    15.509579
_cell_length_b                    14.78709
_cell_length_c                    14.913515
_cell_angle_alpha                 109.436586
_cell_angle_beta                  121.393095
_cell_angle_gamma                 59.678533
_cell_volume                      2508.89416866

loop_
_atom_site_label
_atom_site_type_symbol
_atom_type_description
_atom_site_fract_x
_atom_site_fract_y
_atom_site_fract_z
_atom_type_partial_charge
C1    C     C_R   0.752215 0.995738 0.791893 -0.120484
C2    C     C_R   0.193321 0.257525 0.006213 -0.128563
C3    C     C_R   0.669319 0.673059 0.842504 -0.140407
C4    C     C_R   0.291193 0.167218 0.016423 -0.140892
C5    C     C_R   0.683949 0.740178 0.937015 0.118334
C6    C     C_R   0.287452 0.068329 0.972708 0.104486
C7    C     C_R   0.792406 0.723181 0.015715 -0.176785
C8    C     C_R   0.184347 0.061768 0.916904 -0.172608
C9    C     C_R   0.883721 0.641166 0.999715 -0.107761
C10   C     C_R   0.086859 0.152401 0.905579 -0.122553
C11   C     C_R   0.868010 0.575950 0.905204 -0.104120
C12   C     C_R   0.196192 0.063748 0.227140 -0.150330
C13   C     C_R   0.091267 0.250105 0.950863 -0.111500
C14   C     C_R   0.582528 0.850278 0.049910 -0.239877
C15   C     C_R   0.389892 0.939752 0.875105 -0.230952
C16   C     C_R   0.254560 0.290085 0.499115 -0.108617
C17   C     C_R   0.800482 0.727175 0.562106 -0.115695
C18   C     C_R   0.487958 0.930618 0.062966 0.065726
C19   C     C_R   0.490632 0.885224 0.868434 0.044088
C20   C     C_R   0.388777 0.974185 0.972484 0.024872
C21   C     C_R   0.585517 0.827053 0.952151 0.030384
C22   C     C_2   0.176342 0.393965 0.634609 -0.232114
C23   C     C_R   0.232157 0.298190 0.581090 0.154823
C24   C     C_2   0.979070 0.656419 0.549376 -0.263876
C25   C     C_2   0.139709 0.488387 0.606403 0.046557
C26   C     C_2   0.020241 0.558281 0.572991 0.055726
C27   C     C_2   0.836596 0.128671 0.900942 -0.217770
C28   C     C_2   0.013824 0.051703 0.160248 -0.228235
C29   C     C_R   0.099573 0.741372 0.203195 -0.151363
C30   C     C_R   0.823115 0.121552 0.363543 -0.113065
C31   C     C_R   0.198575 0.669097 0.270016 -0.210573
C32   C     C_R   0.723173 0.210216 0.348288 -0.181822
C33   C     C_R   0.297100 0.631865 0.260657 0.136947
C34   C     C_R   0.861996 0.725925 0.520091 0.178746
C35   C     C_R   0.712421 0.286772 0.432689 0.098997
C36   C     C_R   0.295232 0.669649 0.183990 0.045247
C37   C     C_R   0.803313 0.272861 0.533665 0.025321
C38   C     C_R   0.194988 0.741785 0.116831 -0.146684
C39   C     C_R   0.903318 0.183364 0.547978 -0.177436
C40   C     C_R   0.593216 0.214770 0.484479 -0.136776
C41   C     C_R   0.406835 0.767493 0.442518 -0.154797
C42   C     C_R   0.097465 0.776348 0.125667 -0.098708
C43   C     C_R   0.913117 0.108312 0.463114 -0.107149
C44   C     C_R   0.405367 0.451657 0.320853 -0.021588
C45   C     C_R   0.503545 0.297201 0.425761 0.081441
C46   C     C_R   0.600574 0.478455 0.413192 -0.021552
C47   C     C_R   0.505750 0.373850 0.383099 -0.014728
C48   C     C_R   0.499246 0.567606 0.393409 0.026671
C49   C     C_R   0.605710 0.380817 0.413404 -0.010168
C50   C     C_R   0.400802 0.551397 0.329210 -0.017545
C51   C     C_2   0.858307 0.109276 0.993662 -0.107881
C52   C     C_2   0.955088 0.119394 0.087190 -0.108298
C53   C     C_R   0.407280 0.978641 0.709872 -0.130387
C54   C     C_R   0.589945 0.954768 0.265331 -0.123310
C55   C     C_R   0.410746 0.289531 0.410670 -0.143067
C56   C     C_R   0.498527 0.672507 0.446559 0.077974
C57   C     C_R   0.591294 0.693759 0.518732 -0.116836
C58   C     C_R   0.590221 0.907608 0.787965 -0.146437
C59   C     C_R   0.405056 0.023435 0.193472 -0.137510
C60   C     C_R   0.255465 0.198018 0.592216 -0.159980
C61   C     C_R   0.801806 0.816562 0.469437 -0.173276
C62   C     C_R   0.752954 0.089006 0.701120 -0.151696
C63   C     C_R   0.195491 0.971501 0.317110 -0.135023
C64   C     C_R   0.780866 0.074804 0.801984 0.144841
C65   C     C_R   0.131669 0.026499 0.229193 0.161011
C66   C     C_R   0.497408 0.919955 0.791649 0.065552
C67   C     C_R   0.494663 0.967013 0.169638 0.043362
C68   C     C_R   0.760886 0.592004 0.826629 -0.126894
H1    H     H_    0.762646 0.963268 0.853587 0.089474
H2    H     H_    0.179478 0.986769 0.880052 0.114728
H3    H     H_    0.654645 0.808195 0.116253 0.124454
H4    H     H_    0.313621 0.975033 0.807923 0.122144
H5    H     H_    0.020179 0.830424 0.072373 0.107631
H6    H     H_    0.990409 0.039515 0.474672 0.101054
H7    H     H_    0.024123 0.769526 0.210859 0.106969
H8    H     H_    0.830840 0.063066 0.298030 0.104713
H9    H     H_    0.198721 0.642478 0.329554 0.114649
H10   H     H_    0.654143 0.219580 0.270547 0.122122
H11   H     H_    0.192611 0.770376 0.057158 0.114063
H12   H     H_    0.168435 0.122187 0.178832 0.098611
H13   H     H_    0.973171 0.171687 0.625184 0.116987
H14   H     H_    0.678601 0.185379 0.501959 0.118920
H15   H     H_    0.320608 0.782447 0.399079 0.120443
H16   H     H_    0.322022 0.991112 0.677844 0.082981
H17   H     H_    0.675262 0.914642 0.277250 0.093318
H18   H     H_    0.675448 0.858136 0.833651 0.112294
H19   H     H_    0.319178 0.041289 0.141846 0.123785
H20   H     H_    0.763936 0.144700 0.680450 0.099222
H21   H     H_    0.165146 0.945599 0.350544 0.094776
H22   H     H_    0.988987 0.167041 0.085268 0.131955
H23   H     H_    0.978301 0.005321 0.161818 0.126583
H24   H     H_    0.821074 0.065914 0.997329 0.124218
H25   H     H_    0.938858 0.512971 0.892879 0.097986
H26   H     H_    0.015494 0.320218 0.941707 0.103476
H27   H     H_    0.966861 0.628131 0.060470 0.120756
H28   H     H_    0.007870 0.146947 0.859646 0.101669
H29   H     H_    0.957261 0.446918 0.499365 0.115189
H30   H     H_    0.960302 0.497203 0.621372 0.080489
H31   H     H_    0.171609 0.533087 0.515758 0.087565
H32   H     H_    0.220180 0.578539 0.644840 0.104931
H33   H     H_    0.031331 0.687412 0.553385 0.116251
H34   H     H_    0.872981 0.173529 0.898510 0.124557
H35   H     H_    0.135124 0.383030 0.668194 0.115989
H36   H     H_    0.243561 0.352164 0.466651 0.103436
H37   H     H_    0.830687 0.682196 0.624414 0.098610
H38   H     H_    0.380366 0.599245 0.095649 0.105169
H39   H     H_    0.409028 0.698753 0.183964 0.114554
H40   H     H_    0.806568 0.306851 0.677790 0.096913
H41   H     H_    0.854723 0.373778 0.656318 0.087029
H42   H     H_    0.251450 0.456924 0.261775 0.093749
H43   H     H_    0.340109 0.344903 0.220007 0.105535
H44   H     H_    0.760977 0.461612 0.494524 0.104378
H45   H     H_    0.748619 0.541604 0.753358 0.113807
H46   H     H_    0.715268 0.436163 0.361936 0.122840
H47   H     H_    0.325321 0.333915 0.361608 0.086556
H48   H     H_    0.677144 0.639799 0.547590 0.107859
H49   H     H_    0.246621 0.176073 0.648274 0.107298
H50   H     H_    0.833092 0.849427 0.443913 0.095962
H51   H     H_    0.196134 0.333636 0.039244 0.113628
H52   H     H_    0.586928 0.683648 0.780787 0.114532
H53   H     H_    0.369507 0.174323 0.056992 0.113326
H54   H     H_    0.806668 0.773983 0.088757 0.099404
N1    N     N_R   0.705410 0.966550 0.689210 -0.045608
N2    N     N_R   0.556610 0.796750 0.548620 -0.043359
N3    N     N_R   0.556610 0.951620 0.703500 -0.039449
N4    N     N_R   0.443390 0.048380 0.296500 -0.040917
N5    N     N_R   0.294590 0.131500 0.522480 -0.042135
N6    N     N_R   0.705410 0.868500 0.477520 -0.039472
N7    N     N_R   0.705410 0.023370 0.632390 -0.041364
N8    N     N_R   0.294590 0.976630 0.367610 -0.042754
N9    N     N_3   0.944946 0.515358 0.551029 -0.211774
N10   N     N_3   0.210590 0.512903 0.592673 -0.204488
N11   N     N_3   0.394376 0.633280 0.172956 -0.214668
N12   N     N_R   0.294590 0.033450 0.310790 -0.044617
N13   N     N_3   0.792358 0.346872 0.622099 -0.224067
N14   N     N_3   0.314371 0.426329 0.238037 -0.213092
N15   N     N_3   0.693582 0.486202 0.422345 -0.214067
N16   N     N_R   0.294590 0.188320 0.465660 -0.048256
N17   N     N_R   0.705410 0.811680 0.534340 -0.048001
N18   N     N_R   0.556610 0.157790 0.497330 -0.040821
N19   N     N_R   0.443390 0.842210 0.502670 -0.041478
N20   N     N_R   0.443390 0.997080 0.657540 -0.037491
N21   N     N_R   0.556610 0.002920 0.342460 -0.037449
N22   N     N_R   0.443390 0.203250 0.451380 -0.039104
Ni1   Ni    Ni4+2 0.629830 0.882720 0.617850 0.210897
Ni2   Ni    Ni4+2 0.370170 0.117280 0.382150 0.208684
Ni3   Ni    Ni4+2 0.629830 0.013030 0.487540 0.215172
Ni4   Ni    Ni4+2 0.370170 0.986970 0.512460 0.206725

loop_
_geom_bond_atom_site_label_1
_geom_bond_atom_site_label_2
_ccdc_geom_bond_type
C44   N14   S    
C63   C65   A    
C29   C42   A    
H41   N13   S    
C14   H3    S    
C14   C18   A    
H42   N14   S    
C3    C68   A    
C36   N11   S    
N4    Ni2   S    
C47   C49   A    
C59   N4    A    
C15   C19   A    
C15   H4    S    
C46   C49   A    
H31   N10   S    
C53   H16   S    
C14   C21   A    
C35   C37   A    
N6    N17   A    
C24   C26   D    
C38   C42   A    
C8    C10   A    
H43   N14   S    
H46   N15   S    
C38   H11   S    
C41   H15   S    
C40   N18   A    
N4    N21   A    
C33   C36   A    
C56   C57   A    
C19   C66   S    
C7    C9    A    
C53   N20   A    
C63   N8    A    
C2    C13   A    
C62   C64   A    
N19   Ni4   S    
C59   C67   A    
C52   H22   S    
C16   H36   S    
H38   N11   S    
N1    Ni1   S    
C27   C51   D    
C22   C25   D    
H30   N9    S    
C35   C49   S    
C37   N13   S    
H39   N11   S    
N5    N16   A    
C61   N6    A    
C9    H27   S    
C44   C47   A    
N5    Ni4   S    
C11   H25   S    
C43   H6    S    
C48   C50   A    
C54   N21   A    
C12   N12   A    
N1    N7    A    
C23   C60   A    
C62   N7    A    
N8    N12   A    
C58   H18   S    
N18   Ni3   S    
C58   C66   A    
C31   H9    S    
C57   H48   S    
C45   C47   S    
C40   C45   A    
N12   Ni2   S    
C46   C48   A    
N8    Ni4   S    
C51   C52   S    
C32   C35   A    
N20   Ni4   S    
H29   N9    S    
H40   N13   S    
N22   Ni2   S    
C3    H52   S    
C5    C7    A    
C39   C43   A    
C54   C67   A    
C25   C26   S    
C62   H20   S    
C34   C61   A    
C24   C34   S    
C22   H35   S    
C15   C20   A    
N21   Ni3   S    
C1    N1    A    
C41   C56   A    
C41   N19   A    
C17   H37   S    
C51   H24   S    
C40   H14   S    
C30   H8    S    
C10   H28   S    
N3    N20   A    
C63   H21   S    
C31   C33   A    
C60   H49   S    
C17   N17   A    
C53   C66   A    
C9    C11   A    
C39   H13   S    
C46   N15   S    
C4    C6    A    
C16   C23   A    
N2    N19   A    
C17   C34   A    
C7    H54   S    
C1    C64   A    
C1    H1    S    
C11   C68   A    
C12   C65   A    
C44   C50   A    
C48   C56   S    
N17   Ni1   S    
C42   H5    S    
C55   N22   A    
C19   C21   A    
C61   H50   S    
H44   N15   S    
C60   N5    A    
C16   N16   A    
N18   N22   A    
C3    C5    A    
C10   C13   A    
C54   H17   S    
C6    C8    A    
C2    H51   S    
H32   N10   S    
N6    Ni3   S    
C29   H7    S    
C6    C20   S    
N2    Ni1   S    
C68   H45   S    
C27   H34   S    
C8    H2    S    
C13   H26   S    
C24   H33   S    
C36   C38   A    
C28   C65   S    
C33   C50   S    
C37   C39   A    
N3    Ni1   S    
C57   N2    A    
C30   C32   A    
C28   C52   D    
C55   H47   S    
N16   Ni2   S    
C2    C4    A    
C12   H12   S    
C4    H53   S    
C28   H23   S    
C18   C20   A    
C30   C43   A    
C59   H19   S    
N7    Ni3   S    
C27   C64   S    
C32   H10   S    
C5    C21   S    
C45   C55   A    
C58   N3    A    
C29   C31   A    
C18   C67   S    
C22   C23   S    
C25   N10   S    
C26   N9    S    
