data_mof_unit_pretest_1918.cif
_audit_creation_date              2012-12-10T19:46:56-0500
_audit_creation_method            fapswitch 2.2
_symmetry_space_group_name_H-M    P1
_symmetry_Int_Tables_number       1
_space_group_crystal_system       triclinic
_cell_length_a                    28.272258
_cell_length_b                    18.271446
_cell_length_c                    21.674965
_cell_angle_alpha                 89.998768
_cell_angle_beta                  139.782598
_cell_angle_gamma                 90.000813
_cell_volume                      7229.62276743

loop_
_atom_site_label
_atom_site_type_symbol
_atom_type_description
_atom_site_fract_x
_atom_site_fract_y
_atom_site_fract_z
_atom_type_partial_charge
C1    C     C_R   0.858746 0.499993 0.858738 0.920143
C2    C     C_R   0.943174 0.478770 0.224702 -0.205163
C3    C     C_R   0.556829 0.978779 0.775302 -0.205158
C4    C     C_R   0.443181 0.978741 0.224709 -0.205161
C5    C     C_R   0.998885 0.512126 0.685997 -0.117191
C6    C     C_R   0.001115 0.512126 0.314002 -0.117188
C7    C     C_R   0.498885 0.012130 0.685997 -0.117182
C8    C     C_R   0.501111 0.012115 0.313998 -0.117217
C9    C     C_1   0.782268 0.499966 0.781982 -0.201845
C10   C     C_1   0.217731 0.499966 0.218018 -0.201866
C11   C     C_1   0.282268 0.999966 0.781982 -0.201864
C12   C     C_R   0.141254 0.499993 0.141262 0.920142
C13   C     C_1   0.717731 0.999966 0.218018 -0.201859
C14   C     C_1   0.717467 0.499932 0.717108 -0.191769
C15   C     C_1   0.282533 0.499931 0.282892 -0.191766
C16   C     C_1   0.217467 0.999932 0.717108 -0.191765
C17   C     C_1   0.782533 0.999931 0.282892 -0.191762
C18   C     C_R   1.000000 0.641290 0.500000 0.963637
C19   C     C_R   0.000000 0.358714 0.500000 0.937069
C20   C     C_R   0.500000 0.141290 0.500004 0.963641
C21   C     C_R   0.500000 0.858714 0.500000 0.937066
C22   C     C_R   0.999691 0.505975 0.620105 0.919793
C23   C     C_R   0.358746 0.999993 0.858738 0.920150
C24   C     C_R   0.000309 0.505975 0.379894 0.919796
C25   C     C_R   0.499691 0.005977 0.620105 0.919790
C26   C     C_R   0.500308 0.005970 0.379893 0.919781
C27   C     C_R   0.500000 0.640978 0.499999 0.929812
C28   C     C_R   0.499998 0.359030 0.499999 0.936629
C29   C     C_R   0.000000 0.140978 0.499999 0.929812
C30   C     C_R   0.000000 0.859031 0.500001 0.936663
C31   C     C_R   0.640980 0.499926 0.640867 0.929176
C32   C     C_R   0.359020 0.499926 0.359133 0.929183
C33   C     C_R   0.140980 0.999926 0.640867 0.929183
C34   C     C_R   0.641254 0.999993 0.141262 0.920145
C35   C     C_R   0.859020 0.999926 0.359133 0.929184
C36   C     C_1   1.000000 0.717806 0.500000 -0.242124
C37   C     C_1   0.000000 0.282238 0.499999 -0.191330
C38   C     C_1   0.500001 0.217806 0.500007 -0.242008
C39   C     C_1   0.500000 0.782238 0.499999 -0.191330
C40   C     C_R   0.999449 0.499827 0.879350 0.865948
C41   C     C_R   0.000551 0.499826 0.120649 0.865951
C42   C     C_R   0.499450 0.999827 0.879351 0.865952
C43   C     C_R   0.500555 0.999825 0.120653 0.865955
C44   C     C_1   0.499999 0.282596 0.500004 -0.232637
C45   C     C_R   0.055528 0.473927 0.837278 -0.210259
C46   C     C_1   0.500000 0.717456 0.499999 -0.186824
C47   C     C_1   0.000000 0.782596 0.500001 -0.232597
C48   C     C_1   0.000000 0.217456 0.499999 -0.186824
C49   C     C_R   0.869818 0.549461 0.686588 -0.171582
C50   C     C_R   0.130181 0.549462 0.313409 -0.171575
C51   C     C_R   0.369817 0.049456 0.686587 -0.171579
C52   C     C_R   0.630175 0.049484 0.313411 -0.171578
C53   C     C_R   0.811927 0.583470 0.598633 -0.225718
C54   C     C_R   0.188070 0.583473 0.401361 -0.225716
C55   C     C_R   0.311924 0.083462 0.598630 -0.225711
C56   C     C_R   0.944472 0.473925 0.162723 -0.210256
C57   C     C_R   0.688050 0.083515 0.401353 -0.225754
C58   C     C_R   0.819585 0.604059 0.544917 -0.226640
C59   C     C_R   0.180412 0.604063 0.455075 -0.226644
C60   C     C_R   0.319580 0.104052 0.544913 -0.226647
C61   C     C_R   0.680375 0.104111 0.455047 -0.226594
C62   C     C_R   0.884324 0.588327 0.577246 0.515231
C63   C     C_R   0.115675 0.588327 0.422749 0.515216
C64   C     C_R   0.384319 0.088323 0.577241 0.515211
C65   C     C_R   0.615636 0.088360 0.422712 0.515324
C66   C     C_R   0.938771 0.543103 0.658968 -0.030618
C67   C     C_R   0.555531 0.973934 0.837281 -0.210259
C68   C     C_R   0.061228 0.543104 0.341029 -0.030609
C69   C     C_R   0.438770 0.043104 0.658967 -0.030602
C70   C     C_R   0.561214 0.043109 0.341017 -0.030700
C71   C     C_R   0.934341 0.530521 0.718559 0.036713
C72   C     C_R   0.065659 0.530520 0.281440 0.036713
C73   C     C_R   0.434341 0.030520 0.718558 0.036710
C74   C     C_R   0.565654 0.030526 0.281437 0.036719
C75   C     C_R   0.995060 0.499690 0.809296 -0.059745
C76   C     C_R   0.004940 0.499687 0.190704 -0.059750
C77   C     C_R   0.495061 0.999691 0.809297 -0.059746
C78   C     C_R   0.444482 0.973899 0.162731 -0.210246
C79   C     C_R   0.504943 0.999682 0.190707 -0.059763
C80   C     C_3   0.930109 0.694220 0.582678 0.097987
C81   C     C_3   0.873475 0.756375 0.525165 -0.382063
C82   C     C_3   0.825621 0.755201 0.419690 -0.733004
C83   C     C_3   0.069908 0.694224 0.417342 0.098001
C84   C     C_3   0.126550 0.756370 0.474885 -0.382058
C85   C     C_3   0.174398 0.755163 0.580358 -0.732990
C86   C     C_3   0.430062 0.194230 0.582621 0.098012
C87   C     C_3   0.373407 0.256364 0.525041 -0.382041
C88   C     C_3   0.325567 0.255132 0.419572 -0.732983
C89   C     C_R   0.056826 0.478771 0.775299 -0.205164
C90   C     C_3   0.569664 0.194198 0.417032 0.097930
C91   C     C_3   0.626192 0.256452 0.474241 -0.382091
C92   C     C_3   0.674158 0.255513 0.579764 -0.732998
H1    H     H_    0.101807 0.449953 0.907361 0.146809
H2    H     H_    0.237612 0.597013 0.425742 0.169115
H3    H     H_    0.262381 0.096998 0.574248 0.169114
H4    H     H_    0.737591 0.097071 0.425737 0.169117
H5    H     H_    0.776579 0.635526 0.480218 0.157147
H6    H     H_    0.223418 0.635529 0.519773 0.157145
H7    H     H_    0.276570 0.135513 0.480210 0.157143
H8    H     H_    0.723359 0.135609 0.519722 0.157166
H9    H     H_    0.103024 0.455263 0.796954 0.168938
H10   H     H_    0.896976 0.455262 0.203048 0.168941
H11   H     H_    0.603029 0.955274 0.796959 0.168943
H12   H     H_    0.898194 0.449951 0.092641 0.146814
H13   H     H_    0.396991 0.955218 0.203062 0.168929
H14   H     H_    0.972625 0.705811 0.590193 0.151058
H15   H     H_    0.960002 0.695422 0.657459 0.081257
H16   H     H_    0.837933 0.752925 0.531214 0.200282
H17   H     H_    0.902888 0.809585 0.556583 0.193457
H18   H     H_    0.859866 0.757975 0.411654 0.254708
H19   H     H_    0.788295 0.803186 0.382937 0.223447
H20   H     H_    0.791847 0.704684 0.384709 0.269070
H21   H     H_    0.027382 0.705810 0.409812 0.151046
H22   H     H_    0.040026 0.695444 0.342568 0.081254
H23   H     H_    0.601812 0.949964 0.907366 0.146810
H24   H     H_    0.162096 0.752932 0.468842 0.200270
H25   H     H_    0.097145 0.809586 0.443487 0.193460
H26   H     H_    0.140151 0.757920 0.588391 0.254719
H27   H     H_    0.211728 0.803146 0.617132 0.223438
H28   H     H_    0.208169 0.704643 0.615322 0.269063
H29   H     H_    0.472598 0.205820 0.590171 0.151038
H30   H     H_    0.459928 0.195465 0.657388 0.081254
H31   H     H_    0.337853 0.252931 0.531073 0.200259
H32   H     H_    0.402799 0.309587 0.556418 0.193459
H33   H     H_    0.359821 0.257875 0.411548 0.254721
H34   H     H_    0.398210 0.949914 0.092655 0.146820
H35   H     H_    0.288233 0.303112 0.382774 0.223430
H36   H     H_    0.291800 0.204609 0.384622 0.269053
H37   H     H_    0.527219 0.205791 0.409650 0.151088
H38   H     H_    0.539649 0.195253 0.342186 0.081262
H39   H     H_    0.661660 0.252952 0.468075 0.200336
H40   H     H_    0.596683 0.309606 0.442666 0.193435
H41   H     H_    0.639989 0.258344 0.587917 0.254661
H42   H     H_    0.711402 0.303559 0.616292 0.223486
H43   H     H_    0.708020 0.205056 0.614887 0.269029
H44   H     H_    0.863287 0.537163 0.728597 0.145018
H45   H     H_    0.136712 0.537162 0.271400 0.145021
H46   H     H_    0.363287 0.037157 0.728598 0.145019
H47   H     H_    0.636715 0.037184 0.271411 0.145023
H48   H     H_    0.762385 0.597010 0.574250 0.169115
O1    O     O_R   0.892670 0.439420 0.892670 -0.620428
O2    O     O_R   0.000010 0.560580 0.091620 -0.620096
O3    O     O_R   0.000010 0.439420 0.091620 -0.622266
O4    O     O_R   0.999990 0.560580 0.908380 -0.620098
O5    O     O_R   0.499990 0.939420 0.908380 -0.622266
O6    O     O_R   0.500010 0.060580 0.091620 -0.620103
O7    O     O_R   0.500010 0.939420 0.091620 -0.622270
O8    O     O_R   0.499990 0.060580 0.908380 -0.620095
O9    O     O_R   0.060590 0.607350 0.560620 -0.599847
O10   O     O_R   0.939410 0.392650 0.439380 -0.622523
O11   O     O_R   0.939410 0.607350 0.439380 -0.599836
O12   O     O_R   0.107330 0.560580 0.107330 -0.620615
O13   O     O_R   0.060590 0.392650 0.560620 -0.622525
O14   O     O_R   0.560590 0.107350 0.560620 -0.599787
O15   O     O_R   0.439410 0.892650 0.439380 -0.622524
O16   O     O_R   0.439410 0.107350 0.439380 -0.599883
O17   O     O_R   0.560590 0.892650 0.560620 -0.622525
O18   O     O_R   0.060610 0.500000 0.652240 -0.644722
O19   O     O_R   0.939390 0.500000 0.347760 -0.644723
O20   O     O_R   0.560610 1.000000 0.652240 -0.644723
O21   O     O_R   0.439390 1.000000 0.347760 -0.644715
O22   O     O_R   0.939430 0.500000 0.531050 -0.584922
O23   O     O_R   0.107330 0.439420 0.107330 -0.620449
O24   O     O_R   0.060570 0.500000 0.468950 -0.584914
O25   O     O_R   0.439430 0.000000 0.531050 -0.584913
O26   O     O_R   0.560570 0.000000 0.468950 -0.584977
O27   O     O_R   0.500010 0.607330 0.448300 -0.619544
O28   O     O_R   0.499990 0.392670 0.551700 -0.626775
O29   O     O_R   0.499990 0.607330 0.551700 -0.619540
O30   O     O_R   0.500010 0.392670 0.448300 -0.626746
O31   O     O_R   0.000010 0.107330 0.448300 -0.619542
O32   O     O_R   0.999990 0.892670 0.551700 -0.626777
O33   O     O_R   0.999990 0.107330 0.551700 -0.619540
O34   O     O_R   0.892670 0.560580 0.892670 -0.620618
O35   O     O_R   0.000010 0.892670 0.448300 -0.626779
O36   O     O_R   0.607330 0.500000 0.555630 -0.624563
O37   O     O_R   0.392670 0.500000 0.444370 -0.624581
O38   O     O_R   0.107330 1.000000 0.555630 -0.624581
O39   O     O_R   0.892670 0.000000 0.444370 -0.624574
O40   O     O_R   0.607340 0.500000 0.659080 -0.618720
O41   O     O_R   0.392660 0.500000 0.340920 -0.618733
O42   O     O_R   0.107340 0.000000 0.659080 -0.618726
O43   O     O_R   0.892660 0.000000 0.340920 -0.618725
O44   O     O_3   0.897862 0.625449 0.536435 -0.618101
O45   O     O_R   0.392670 0.939420 0.892670 -0.620445
O46   O     O_3   0.102140 0.625443 0.463566 -0.618098
O47   O     O_3   0.397850 0.125441 0.536420 -0.618097
O48   O     O_3   0.602063 0.125508 0.463468 -0.618127
O49   O     O_R   0.607330 0.060580 0.107330 -0.620619
O50   O     O_R   0.607330 0.939420 0.107330 -0.620444
O51   O     O_R   0.392670 0.060580 0.892670 -0.620614
O52   O     O_R   0.999990 0.439420 0.908380 -0.622266
Zn1   Zn    Zn3+2 0.000000 0.419100 0.000000 0.957923
Zn2   Zn    Zn3+2 0.500000 0.500000 0.569060 0.949734
Zn3   Zn    Zn3+2 1.000000 0.000000 0.430940 0.949731
Zn4   Zn    Zn3+2 0.000000 0.000000 0.569060 0.949736
Zn5   Zn    Zn3+2 0.000000 0.580900 0.000000 0.962064
Zn6   Zn    Zn3+2 0.500000 0.919100 0.000000 0.957906
Zn7   Zn    Zn3+2 0.500000 0.080900 0.000000 0.962056
Zn8   Zn    Zn3+2 0.080920 0.500000 0.580940 0.986569
Zn9   Zn    Zn3+2 0.919080 0.500000 0.419060 0.986574
Zn10  Zn    Zn3+2 0.580920 0.000000 0.580940 0.986600
Zn11  Zn    Zn3+2 0.419080 1.000000 0.419060 0.986557
Zn12  Zn    Zn3+2 0.500000 0.500000 0.430940 0.949731

loop_
_geom_bond_atom_site_label_1
_geom_bond_atom_site_label_2
_ccdc_geom_bond_type
C58   C62   A    
C87   H31   S    
C87   C88   S    
C56   C76   A    
C3    H11   S    
C53   H48   S    
C8    C26   S    
O36   Zn12  S    
C92   H41   S    
C67   C77   A    
C14   C31   S    
C72   C76   A    
C60   H7    S    
C42   O8    A    
C19   O10   A    
C23   O51   A    
C81   C82   S    
C50   H45   S    
C15   C32   S    
O13   Zn8   S    
C24   O24   A    
C4    C78   A    
C80   H15   S    
C50   C54   A    
C20   O14   A    
C82   H18   S    
O51   Zn7   S    
C41   O3    A    
C88   H35   S    
C52   C74   A    
C10   C15   T    
O20   Zn10  S    
C87   H32   S    
C22   O22   A    
O19   Zn9   S    
C91   H39   S    
C2    H10   S    
C35   O43   A    
C65   C70   A    
O3    Zn1   S    
C80   H14   S    
C52   H47   S    
C36   C47   T    
O26   Zn10  S    
O6    Zn7   S    
C85   H27   S    
C50   C72   A    
C67   H23   S    
C19   C37   S    
C90   H37   S    
C1    O1    A    
C5    C22   S    
C83   C84   S    
C84   H25   S    
C57   H4    S    
C21   C39   S    
C70   C74   A    
O18   Zn8   S    
C83   O46   S    
C69   C73   A    
O45   Zn6   S    
C18   O9    A    
C45   C89   A    
C27   O29   A    
O30   Zn12  S    
C4    C8    A    
C54   C59   A    
O49   Zn7   S    
C6    C68   A    
C81   H16   S    
C45   H1    S    
C86   O47   S    
C84   H24   S    
O28   Zn2   S    
C55   C60   A    
C90   H38   S    
C83   H22   S    
C2    C6    A    
C58   H5    S    
C21   O17   A    
O11   Zn9   S    
O15   Zn11  S    
O35   Zn3   S    
O14   Zn10  S    
C31   O36   A    
C35   O39   A    
C92   H42   S    
C1    O34   A    
C24   O19   A    
O37   Zn2   S    
C62   C66   A    
C29   C48   S    
C30   C47   S    
C34   O50   A    
C1    C9    S    
C84   C85   S    
C56   H12   S    
C55   H3    S    
O33   Zn4   S    
C91   C92   S    
C23   O45   A    
C86   C87   S    
C5    C66   A    
C91   H40   S    
O22   Zn9   S    
C3    C7    A    
C25   O25   A    
C64   C69   A    
C28   C44   S    
C82   H20   S    
C85   H28   S    
C9    C14   T    
C38   C44   T    
C88   H33   S    
C16   C33   S    
C20   C38   S    
C11   C16   T    
C32   O41   A    
O43   Zn3   S    
C66   C71   A    
C40   O52   A    
C68   C72   A    
C63   O46   S    
C6    C24   S    
C86   H29   S    
C21   O15   A    
O1    Zn1   S    
O27   Zn12  S    
C29   O31   A    
C37   C48   T    
C30   O32   A    
C45   C75   A    
C43   C79   S    
C10   C12   S    
C39   C46   T    
C27   C46   S    
O31   Zn3   S    
C49   H44   S    
C81   H17   S    
O4    Zn5   S    
C74   C79   A    
C40   O4    A    
C19   O13   A    
O2    Zn5   S    
C32   O37   A    
O32   Zn4   S    
O41   Zn12  S    
O42   Zn4   S    
O39   Zn4   S    
C18   O11   A    
C78   H34   S    
C30   O35   A    
C65   O48   S    
O40   Zn2   S    
O50   Zn6   S    
C4    H13   S    
C28   O30   A    
C83   H21   S    
C63   C68   A    
C26   O26   A    
O34   Zn5   S    
C73   C77   A    
C20   O16   A    
C89   H9    S    
C33   O38   A    
C78   C79   A    
C25   O20   A    
C59   C63   A    
O21   Zn11  S    
C34   O49   A    
C3    C67   A    
C86   H30   S    
C51   C73   A    
C29   O33   A    
C80   C81   S    
C7    C69   A    
C53   C58   A    
O8    Zn7   S    
C57   C61   A    
O29   Zn2   S    
C22   O18   A    
O38   Zn3   S    
C26   O21   A    
C8    C70   A    
C7    C25   S    
C40   C75   S    
C13   C17   T    
C31   O40   A    
C60   C64   A    
C82   H19   S    
O25   Zn11  S    
C13   C34   S    
C88   H36   S    
C43   O6    A    
C2    C56   A    
O52   Zn1   S    
C41   C76   S    
C71   C75   A    
C42   O5    A    
C90   C91   S    
C90   O48   S    
C92   H43   S    
C49   C53   A    
C11   C23   S    
O12   Zn5   S    
C51   C55   A    
C80   O44   S    
C85   H26   S    
C54   H2    S    
C64   O47   S    
C43   O7    A    
C52   C57   A    
C28   O28   A    
O9    Zn8   S    
C62   O44   S    
C12   O12   A    
C61   H8    S    
C51   H46   S    
C61   C65   A    
C41   O2    A    
O5    Zn6   S    
C42   C77   S    
C49   C71   A    
C33   O42   A    
C59   H6    S    
O23   Zn1   S    
O7    Zn6   S    
O17   Zn10  S    
C17   C35   S    
O10   Zn9   S    
O16   Zn11  S    
C18   C36   S    
C5    C89   A    
O24   Zn8   S    
C27   O27   A    
C12   O23   A    
