data_mof_unit_pretest_244.cif
_audit_creation_date              2012-12-10T17:22:07-0500
_audit_creation_method            fapswitch 2.2
_symmetry_space_group_name_H-M    P1
_symmetry_Int_Tables_number       1
_space_group_crystal_system       triclinic
_cell_length_a                    15.913052
_cell_length_b                    10.837185
_cell_length_c                    9.654066
_cell_angle_alpha                 89.827233
_cell_angle_beta                  89.406727
_cell_angle_gamma                 92.315359
_cell_volume                      1663.41143806

loop_
_atom_site_label
_atom_site_type_symbol
_atom_type_description
_atom_site_fract_x
_atom_site_fract_y
_atom_site_fract_z
_atom_type_partial_charge
C1    C     C_R   0.499388 0.262768 0.501602 0.860942
C2    C     C_3   0.947984 0.402032 0.607791 0.338783
C3    C     C_3   0.917026 0.502309 0.498115 -0.334559
C4    C     C_3   0.953807 0.637686 0.540380 0.340703
C5    C     C_3   0.053309 0.631908 0.561578 0.279090
C6    C     C_1   0.824527 0.499207 0.496542 0.256350
C7    C     C_1   0.176384 0.503452 0.501927 0.229856
C8    C     C_1   0.251605 0.502145 0.501604 -0.012439
C9    C     C_R   0.627337 0.130351 0.655152 -0.174515
C10   C     C_R   0.692988 0.065989 0.711816 0.195882
C11   C     C_R   0.710171 0.949952 0.660976 -0.155000
C12   C     C_R   0.340726 0.500386 0.500627 0.861382
C13   C     C_R   0.653723 0.890386 0.571553 0.311919
C14   C     C_R   0.575365 0.941774 0.544310 -0.022585
C15   C     C_R   0.567763 0.068998 0.568325 -0.020850
C16   C     C_R   0.499468 0.128696 0.508687 -0.201358
C17   C     C_R   0.429165 0.058951 0.461838 0.322379
C18   C     C_R   0.431531 0.930464 0.456039 0.315678
C19   C     C_R   0.504876 0.871824 0.494896 -0.218904
C20   C     C_R   0.649460 0.566167 0.122672 0.414051
C21   C     C_R   0.703037 0.658466 0.065908 -0.091320
C22   C     C_R   0.686595 0.703845 0.934577 -0.219514
C23   C     C_R   0.502397 0.737346 0.499058 0.922072
C24   C     C_R   0.619233 0.652240 0.860119 -0.129302
C25   C     C_R   0.560653 0.568574 0.924782 0.179655
C26   C     C_R   0.567592 0.551180 0.070553 0.074060
C27   C     C_R   0.438263 0.440052 0.071941 0.261353
C28   C     C_R   0.440408 0.437232 0.925258 -0.053375
C29   C     C_R   0.659264 0.494442 0.499396 0.846936
C30   C     C_3   0.046879 0.389214 0.589839 0.336289
C31   C     C_3   0.050642 0.495476 0.348738 0.151090
C32   C     C_3   0.953300 0.468347 0.348028 0.557119
C33   C     C_1   0.748994 0.495671 0.497711 0.021232
C34   C     C_3   0.084143 0.503995 0.502612 -0.316076
Cu1   Cu    Cu3+1 0.499990 0.499990 0.640660 0.992252
Cu2   Cu    Cu3+1 0.500010 0.500010 0.359340 1.076047
H1    H     H_    0.621516 0.224692 0.687473 0.180677
H2    H     H_    0.767788 0.907012 0.689321 0.221104
H3    H     H_    0.763753 0.679486 0.111376 0.237754
H4    H     H_    0.731019 0.768500 0.885181 0.207335
H5    H     H_    0.615369 0.679710 0.754296 0.212935
H6    H     H_    0.392612 0.384499 0.869418 0.169399
H7    H     H_    0.062252 0.587286 0.299665 0.193447
N1    N     N_R   0.500800 0.501210 0.147910 -0.222947
N2    N     N_R   0.500820 0.501290 0.852040 -0.211527
O1    O     O_R   0.499990 0.319640 0.618810 -0.598114
O2    O     O_R   0.500000 0.319660 0.381240 -0.541791
O3    O     O_R   0.379430 0.499990 0.618840 -0.583106
O4    O     O_R   0.379440 0.500020 0.381260 -0.542798
O5    O     O_R   0.500000 0.680340 0.618760 -0.600881
O6    O     O_R   0.500010 0.680360 0.381190 -0.539147
O7    O     O_R   0.620560 0.499980 0.618740 -0.602367
O8    O     O_R   0.620570 0.500010 0.381160 -0.539844
Cl1   Cl    Cl    0.891466 0.254724 0.592009 -0.416023
I1    I     I_    0.114751 0.348990 0.779813 -0.001940
I2    I     I_    0.907688 0.434622 0.821135 0.039822
I3    I     I_    0.917854 0.786234 0.400979 0.092245
Cl2   Cl    Cl    0.333017 0.130214 0.433759 -0.426377
I4    I     I_    0.763497 0.140488 0.877415 -0.043817
Cl3   Cl    Cl    0.692126 0.772445 0.469369 -0.638481
Cl4   Cl    Cl    0.341069 0.842643 0.403769 -0.440516
I5    I     I_    0.338899 0.327134 0.154396 -0.041191
Cl5   Cl    Cl    0.072359 0.248014 0.502395 -0.286669
Cl6   Cl    Cl    0.701998 0.427761 0.151535 -0.483595
Cl7   Cl    Cl    0.108929 0.400492 0.231711 -0.354264
Cl8   Cl    Cl    0.925776 0.313185 0.293824 -0.264254
Cl9   Cl    Cl    0.908938 0.550002 0.206302 -0.474214
I6    I     I_    0.095139 0.671929 0.771626 0.015114
Cl10  Cl    Cl    0.111052 0.757758 0.474778 -0.400336
Cl11  Cl    Cl    0.900172 0.701710 0.687087 -0.510959

loop_
_geom_bond_atom_site_label_1
_geom_bond_atom_site_label_2
_ccdc_geom_bond_type
C4    I3    S    
C20   Cl6   S    
C11   H2    S    
C19   C23   S    
C18   Cl4   S    
C27   I5    S    
C29   C33   S    
C9    C10   A    
C31   H7    S    
C23   O6    A    
C31   C32   S    
C21   H3    S    
C6    C33   T    
C12   O3    A    
C17   Cl2   S    
C8    C12   S    
C3    C6    S    
C22   H4    S    
C5    C34   S    
Cu1   O5    S    
C4    Cl11  S    
C12   O4    A    
C9    C15   A    
C31   C34   S    
C26   N1    A    
C7    C8    T    
C13   Cl3   S    
C2    I2    S    
C21   C22   A    
C24   C25   A    
C24   H5    S    
C11   C13   A    
C16   C17   A    
Cu2   O6    S    
C20   C26   A    
C32   Cl9   S    
Cu1   O3    S    
C27   N1    A    
C9    H1    S    
C17   C18   A    
C2    C3    S    
C5    I6    S    
C2    Cl1   S    
C3    C32   S    
C28   N2    A    
C7    C34   S    
C22   C24   A    
C1    O1    A    
Cu2   N1    S    
C10   C11   A    
C30   C34   S    
C3    C4    S    
Cu1   N2    S    
C25   N2    A    
Cu1   O7    S    
C2    C30   S    
C20   C21   A    
Cu2   O2    S    
C32   Cl8   S    
C18   C19   A    
C30   I1    S    
C28   H6    S    
C27   C28   A    
C1    C16   S    
C31   Cl7   S    
C14   C15   A    
C1    O2    A    
C23   O5    A    
C5    Cl10  S    
Cu2   O8    S    
C25   C26   A    
C13   C14   A    
Cu1   O1    S    
C10   I4    S    
C14   C19   A    
C29   O7    A    
C15   C16   A    
Cu2   O4    S    
C30   Cl5   S    
C4    C5    S    
C29   O8    A    
Cu1   Cu2   S    
