data_mof_unit_pretest_1797.cif
_audit_creation_date              2013-03-05T15:42:40-0500
_audit_creation_method            fapswitch 2.2
_symmetry_space_group_name_H-M    P1
_symmetry_Int_Tables_number       1
_space_group_crystal_system       triclinic
_cell_length_a                    6.943002
_cell_length_b                    14.780933
_cell_length_c                    16.159583
_cell_angle_alpha                 90.882622
_cell_angle_beta                  90.14208
_cell_angle_gamma                 90.010023
_cell_volume                      1658.15991188

loop_
_atom_site_label
_atom_site_type_symbol
_atom_site_description
_atom_site_fract_x
_atom_site_fract_y
_atom_site_fract_z
_atom_type_partial_charge
O1    O     O_R   0.494510 0.415970 0.413200 -0.520715
O2    O     O_R   0.823800 0.407430 0.586200 -0.549245
O3    O     O_R   0.994130 0.584030 0.586800 -0.530115
C1    C     C_R   0.654805 0.385132 0.613289 0.818689
O4    O     O_R   0.824220 0.405090 0.413820 -0.541101
O5    O     O_R   0.994560 0.581670 0.413190 -0.546273
C2    C     C_R   0.654873 0.381956 0.386342 0.838951
O6    O     O_R   0.494090 0.418330 0.586810 -0.537765
O7    O     O_3   0.660810 0.557940 0.500000 -0.246704
V1    V     V_3+5 0.935650 0.489250 0.500000 1.359937
O8    O     O_R   0.324270 0.592570 0.413800 -0.513912
C3    C     C_R   0.155128 0.615001 0.386277 0.820134
O9    O     O_R   0.323850 0.594910 0.586180 -0.535257
C4    C     C_R   0.155252 0.616587 0.614730 0.952305
V2    V     V_3+5 0.435660 0.510750 0.500000 1.380026
O10   O     O_3   0.160630 0.442060 0.500000 -0.254613
C5    C     C_3   0.956127 0.722023 0.721681 0.555865
C6    C     C_3   0.040533 0.710832 0.809508 0.576718
C7    C     C_3   0.120425 0.808516 0.807775 -0.415763
C8    C     C_3   0.038636 0.818560 0.719503 0.125457
C9    C     C_3   0.226704 0.782309 0.681434 0.557913
C10   C     C_3   0.307331 0.770816 0.769351 0.234600
C11   C     C_3   0.230724 0.672587 0.772361 -0.242729
C12   C     C_3   0.145432 0.685133 0.684026 -0.395493
H1    H     H_    0.311758 0.612929 0.794610 0.203322
C13   C     C_2   0.992337 0.704223 0.276334 0.549303
C14   C     C_2   0.148293 0.688233 0.324590 0.458934
C15   C     C_2   0.981576 0.779382 0.215919 -0.098731
C16   C     C_2   0.128617 0.804627 0.167038 0.474748
H2    H     H_    0.842101 0.811552 0.208410 0.116334
C17   C     C_2   0.780230 0.218967 0.787123 0.195502
C18   C     C_2   0.617209 0.187573 0.823540 0.417209
C19   C     C_2   0.778213 0.297531 0.730570 0.516803
C20   C     C_2   0.641982 0.310554 0.672311 0.435179
C21   C     C_2   0.773030 0.203878 0.215738 0.503980
C22   C     C_2   0.616663 0.186484 0.167907 0.394316
C23   C     C_2   0.785172 0.281830 0.274855 0.517915
C24   C     C_2   0.638818 0.306876 0.325214 0.382649
O11   O     O_R   0.771000 0.074870 0.906030 -0.565516
O12   O     O_R   0.440710 0.088040 0.078970 -0.514501
O13   O     O_R   0.270540 0.911420 0.079570 -0.529333
C25   C     C_R   0.609746 0.111289 0.106471 0.804837
O14   O     O_R   0.441280 0.085700 0.906600 -0.493466
O15   O     O_R   0.271110 0.909060 0.905960 -0.544723
C26   C     C_R   0.610780 0.110455 0.881270 0.836725
O16   O     O_R   0.770430 0.077230 0.079640 -0.551059
O17   O     O_3   0.604340 0.935220 0.992820 -0.256753
V3    V     V_3+5 0.329430 0.003850 0.992770 1.386835
O18   O     O_R   0.941400 0.898110 0.906530 -0.507539
C27   C     C_R   0.110117 0.876619 0.877772 0.982227
O19   O     O_R   0.940830 0.900450 0.078910 -0.591798
C28   C     C_R   0.110541 0.877787 0.106037 0.792167
V4    V     V_3+5 0.829450 0.982250 0.992700 1.342667
O20   O     O_3   0.104410 0.051000 0.992740 -0.235480
F1    F     F_    0.944557 0.672944 0.875305 -0.580217
F2    F     F_    0.299129 0.759337 0.169012 -0.606172
N1    N     N_R   0.966281 0.183864 0.808161 0.114285
O21   O     O_R   0.080108 0.156130 0.749220 -0.177505
O22   O     O_R   0.039931 0.203934 0.880245 -0.255848
F3    F     F_    0.448376 0.232628 0.812689 -0.579225
F4    F     F_    0.930466 0.355479 0.735907 -0.634481
F5    F     F_    0.494622 0.250794 0.661635 -0.604761
F6    F     F_    0.934164 0.152179 0.207320 -0.624863
F7    F     F_    0.461371 0.242603 0.170888 -0.601022
F8    F     F_    0.957841 0.325088 0.280558 -0.603249
F9    F     F_    0.471121 0.259174 0.324769 -0.603894
F10   F     F_    0.772873 0.696853 0.696796 -0.595692
N2    N     N_R   0.935712 0.896262 0.687152 0.184052
O23   O     O_R   0.867084 0.893275 0.612212 -0.195389
O24   O     O_R   0.919352 0.970146 0.731247 -0.287073
F11   F     F_    0.324753 0.820022 0.616049 -0.559426
N3    N     N_R   0.498628 0.799040 0.795745 0.168592
O25   O     O_R   0.584195 0.755737 0.854808 -0.253697
O26   O     O_R   0.560653 0.878766 0.775841 -0.262949
F12   F     F_    0.830514 0.653357 0.285018 -0.644255
F13   F     F_    0.304016 0.743976 0.321707 -0.610871

loop_
_geom_bond_atom_site_label_1
_geom_bond_atom_site_label_2
_geom_bond_distance
_ccdc_geom_bond_type
C18   C26   1.484773 S    
C22   C25   1.479529 S    
C21   C22   1.353435 D    
C1    O6    1.293550 A    
V4    O20   2.162499 S    
V3    O20   1.710823 S    
C13   C14   1.355713 D    
C9    F11   1.382801 S    
C15   C16   1.348465 D    
C21   C23   1.487604 S    
O5    C3    1.297499 A    
N1    O22   1.301040 A    
V2    O10   2.162516 S    
C20   F5    1.360469 S    
C5    C8    1.538459 S    
C6    C7    1.547334 S    
C25   O16   1.296891 A    
C4    C12   1.500192 S    
O8    V2    2.011946 S    
O13   V3    2.015641 S    
C7    C8    1.543294 S    
N2    O23   1.300384 A    
C23   F8    1.360846 S    
C11   C12   1.557781 S    
C17   C19   1.488793 S    
O1    V2    2.009853 S    
O14   V3    2.015599 S    
O13   C28   1.293368 A    
O17   V4    1.710464 S    
C22   F7    1.360960 S    
O12   C25   1.298281 A    
C9    C10   1.537572 S    
C10   N3    1.453102 S    
C5    C6    1.545368 S    
C1    C20   1.471574 S    
C5    F10   1.382621 S    
C5    C12   1.545659 S    
C3    C14   1.483463 S    
O19   C28   1.301871 A    
C24   F9    1.361007 S    
C7    C10   1.540653 S    
N3    O26   1.299910 A    
O4    C2    1.299672 A    
C6    C11   1.554781 S    
O19   V4    2.011850 S    
O2    C1    1.297616 A    
C23   C24   1.351585 D    
O17   V3    2.161684 S    
C13   F12   1.360532 S    
O14   C26   1.301241 A    
O3    C4    1.295112 A    
C6    F1    1.381996 S    
N2    O24   1.299896 A    
O6    V2    2.013696 S    
O9    V2    2.010433 S    
C18   F3    1.360574 S    
C14   F13   1.360551 S    
O2    V1    2.015668 S    
O7    V1    2.161667 S    
O15   C27   1.295143 A    
O12   V3    2.006673 S    
O1    C2    1.294864 A    
C8    N2    1.456005 S    
C17   C18   1.361709 D    
N3    O25   1.299900 A    
O5    V1    2.015681 S    
O8    C3    1.299584 A    
C16   F2    1.360668 S    
C13   C15   1.491963 S    
O11   C26   1.295635 A    
C17   N1    1.434190 S    
C15   H2    1.086250 S    
O7    V2    1.711663 S    
O4    V1    2.006581 S    
O3    V1    2.007822 S    
V1    O10   1.710808 S    
C7    C27   1.504403 S    
N1    O21   1.300625 A    
O11   V4    2.014166 S    
O18   V4    2.010517 S    
O16   V4    2.013681 S    
C2    C24   1.478284 S    
C19   C20   1.348788 D    
C11   H1    1.110104 S    
C8    C9    1.537733 S    
C19   F4    1.362158 S    
O18   C27   1.298970 A    
C9    C12   1.544334 S    
C10   C11   1.547691 S    
C21   F6    1.360845 S    
O9    C4    1.297697 A    
O15   V3    2.007813 S    
C16   C28   1.479574 S    
