data_mof_unit_pretest_40.cif
_audit_creation_date              2012-12-10T17:38:59-0500
_audit_creation_method            fapswitch 2.2
_symmetry_space_group_name_H-M    P1
_symmetry_Int_Tables_number       1
_space_group_crystal_system       triclinic
_cell_length_a                    12.033999
_cell_length_b                    12.850101
_cell_length_c                    23.374025
_cell_angle_alpha                 90.093532
_cell_angle_beta                  87.099161
_cell_angle_gamma                 93.740805
_cell_volume                      3602.18704753

loop_
_atom_site_label
_atom_site_type_symbol
_atom_type_description
_atom_site_fract_x
_atom_site_fract_y
_atom_site_fract_z
_atom_type_partial_charge
Br1   Br    Br    0.007465 0.382645 0.360065 -0.554857
Br2   Br    Br    0.990343 0.524028 0.652709 -0.502010
Br3   Br    Br    0.646083 0.234790 0.935681 -0.386648
Br4   Br    Br    0.366531 0.822370 0.065692 -0.397986
C1    C     C_R   0.522178 0.700381 0.499008 0.887462
C2    C     C_R   0.407491 0.464830 0.299437 -0.319557
C3    C     C_R   0.608540 0.537643 0.757698 0.496018
C4    C     C_R   0.405741 0.473538 0.240233 0.451477
C5    C     C_R   0.508193 0.528159 0.791334 0.072308
C6    C     C_R   0.497195 0.523888 0.209731 0.152075
C7    C     C_R   0.463304 0.188258 0.498727 -0.133666
C8    C     C_R   0.534744 0.811852 0.495322 -0.137164
C9    C     C_R   0.639100 0.969161 0.463766 0.529524
C10   C     C_R   0.351735 0.029162 0.518435 0.515505
C11   C     C_R   0.633338 0.862206 0.472475 -0.303025
C12   C     C_R   0.477653 0.299691 0.500200 0.918589
C13   C     C_R   0.362055 0.137081 0.517277 -0.266690
C14   C     C_R   0.442027 0.867194 0.510639 -0.247391
C15   C     C_R   0.553909 0.133053 0.479683 -0.252311
C16   C     C_R   0.501052 0.501058 0.610624 0.936207
C17   C     C_R   0.499242 0.500793 0.389623 0.921453
C18   C     C_R   0.446061 0.973570 0.503381 -0.006460
C19   C     C_R   0.546681 0.025639 0.481604 -0.007057
C20   C     C_R   0.954137 0.445130 0.430208 0.237948
C21   C     C_R   0.044856 0.525446 0.573908 0.232911
C22   C     C_R   0.838272 0.442105 0.440224 -0.165076
C23   C     C_R   0.405754 0.510055 0.765804 0.490204
C24   C     C_R   0.160442 0.529675 0.564157 -0.163722
C25   C     C_R   0.858243 0.517119 0.532223 0.630695
C26   C     C_R   0.142139 0.501649 0.464687 0.621957
C27   C     C_R   0.975253 0.508399 0.527388 -0.199728
C28   C     C_R   0.024542 0.484133 0.473327 -0.190689
C29   C     C_R   0.461724 0.610506 0.122096 0.580522
C30   C     C_R   0.547508 0.445122 0.879273 0.577340
C31   C     C_R   0.537877 0.443241 0.119562 0.617365
C32   C     C_R   0.472521 0.612900 0.881490 0.568277
C33   C     C_R   0.541496 0.442893 0.059959 -0.079876
C34   C     C_R   0.589353 0.569037 0.237463 0.503634
C35   C     C_R   0.469768 0.613809 0.941158 -0.075053
C36   C     C_R   0.503925 0.528647 0.030772 -0.055314
C37   C     C_R   0.507378 0.528155 0.970409 -0.056901
C38   C     C_R   0.462957 0.614499 0.061841 -0.100726
C39   C     C_R   0.547943 0.442098 0.939423 -0.109309
C40   C     C_R   0.582188 0.358587 0.029406 -0.181619
C41   C     C_R   0.429589 0.698365 0.971757 -0.180291
C42   C     C_R   0.586056 0.357011 0.969907 0.311324
C43   C     C_R   0.425511 0.699846 0.031323 0.307913
C44   C     C_3   0.211364 0.612451 0.393321 0.123396
C45   C     C_R   0.403773 0.502477 0.706456 -0.305364
C46   C     C_3   0.106807 0.660123 0.372503 -0.431223
C47   C     C_3   0.135673 0.766955 0.345394 -0.956920
C48   C     C_3   0.806235 0.677482 0.562099 0.114899
C49   C     C_3   0.902740 0.745873 0.585370 -0.403304
C50   C     C_3   0.885896 0.861438 0.576955 -0.923307
C51   C     C_3   0.270076 0.399461 0.807011 0.066302
C52   C     C_3   0.168978 0.393278 0.849369 -0.306948
C53   C     C_3   0.124623 0.280611 0.859890 -0.868181
C54   C     C_3   0.765790 0.662142 0.232846 0.079247
C55   C     C_3   0.850586 0.716661 0.190169 -0.302642
C56   C     C_R   0.589016 0.559685 0.297524 -0.368195
C57   C     C_3   0.953532 0.761006 0.219778 -0.964581
C58   C     C_3   0.731463 0.659595 0.795268 0.086070
C59   C     C_3   0.797828 0.714969 0.745255 -0.370875
C60   C     C_3   0.827578 0.829175 0.759017 -0.879910
C61   C     C_3   0.224737 0.481133 0.217676 0.057593
C62   C     C_3   0.130738 0.424667 0.185924 -0.268663
C63   C     C_3   0.026236 0.485803 0.188574 -0.929157
C64   C     C_3   0.725950 0.043407 0.382755 0.064715
C65   C     C_3   0.752380 0.951968 0.343221 -0.409301
C66   C     C_3   0.747170 0.983007 0.280444 -0.869503
C67   C     C_R   0.503786 0.507970 0.672801 -0.193842
C68   C     C_3   0.188048 0.947885 0.490910 0.036426
C69   C     C_3   0.104832 0.029335 0.478552 -0.327431
C70   C     C_3   0.032698 0.995749 0.429076 -0.895294
C71   C     C_R   0.498548 0.508014 0.327868 -0.149930
C72   C     C_R   0.605988 0.524157 0.698733 -0.270697
H1    H     H_    0.611583 0.292769 0.051819 0.219390
H2    H     H_    0.366216 0.827054 0.528602 0.205351
H3    H     H_    0.291829 0.180503 0.531898 0.179978
H4    H     H_    0.704407 0.818552 0.459539 0.159944
H5    H     H_    0.274920 0.614939 0.357147 0.173866
H6    H     H_    0.248113 0.661330 0.427998 0.132079
H7    H     H_    0.067451 0.608284 0.340163 0.261087
H8    H     H_    0.045857 0.669074 0.409204 0.207272
H9    H     H_    0.181609 0.818641 0.375426 0.260805
H10   H     H_    0.057888 0.803251 0.335108 0.272260
H11   H     H_    0.187930 0.759106 0.305254 0.284488
H12   H     H_    0.400467 0.764298 0.949337 0.221262
H13   H     H_    0.726951 0.704250 0.581596 0.177697
H14   H     H_    0.805430 0.690762 0.514932 0.121289
H15   H     H_    0.908799 0.730771 0.631734 0.269510
H16   H     H_    0.982285 0.727500 0.562619 0.220423
H17   H     H_    0.879259 0.879104 0.530819 0.276294
H18   H     H_    0.958049 0.908901 0.593150 0.281223
H19   H     H_    0.808883 0.883242 0.601011 0.274189
H20   H     H_    0.336348 0.354052 0.824824 0.160517
H21   H     H_    0.245069 0.364302 0.765610 0.157983
H22   H     H_    0.192943 0.428845 0.890728 0.231063
H23   H     H_    0.212437 0.539716 0.600232 0.199353
H24   H     H_    0.101891 0.437946 0.832227 0.257926
H25   H     H_    0.098534 0.243972 0.819215 0.274641
H26   H     H_    0.051265 0.278942 0.890727 0.281997
H27   H     H_    0.189722 0.234985 0.878123 0.269439
H28   H     H_    0.807011 0.599210 0.254724 0.155633
H29   H     H_    0.737603 0.721370 0.264253 0.138999
H30   H     H_    0.876311 0.660220 0.156770 0.239545
H31   H     H_    0.811378 0.781142 0.168764 0.241237
H32   H     H_    0.930228 0.820327 0.251995 0.266947
H33   H     H_    0.014161 0.798466 0.187514 0.293733
H34   H     H_    0.784492 0.411508 0.407645 0.194082
H35   H     H_    0.994258 0.698009 0.241518 0.270746
H36   H     H_    0.782439 0.664784 0.833613 0.181923
H37   H     H_    0.654670 0.700977 0.806513 0.151164
H38   H     H_    0.875829 0.675106 0.735844 0.277924
H39   H     H_    0.747860 0.711228 0.706539 0.219299
H40   H     H_    0.750627 0.871082 0.767678 0.278081
H41   H     H_    0.875568 0.866766 0.721912 0.272564
H42   H     H_    0.879499 0.835416 0.796994 0.275638
H43   H     H_    0.241865 0.560794 0.199158 0.170939
H44   H     H_    0.196905 0.487665 0.263679 0.177751
H45   H     H_    0.324042 0.491089 0.687060 0.192849
H46   H     H_    0.158507 0.414048 0.140313 0.231473
H47   H     H_    0.110531 0.346432 0.205424 0.254610
H48   H     H_    0.996984 0.497933 0.233784 0.280907
H49   H     H_    0.958894 0.441911 0.166123 0.282900
H50   H     H_    0.044264 0.562502 0.167141 0.268641
H51   H     H_    0.786652 0.110198 0.371913 0.191693
H52   H     H_    0.641974 0.070193 0.374268 0.135089
H53   H     H_    0.837049 0.926958 0.350918 0.232277
H54   H     H_    0.690982 0.884988 0.352363 0.215418
H55   H     H_    0.663604 0.009908 0.272123 0.278260
H56   H     H_    0.657288 0.592515 0.321546 0.151399
H57   H     H_    0.762061 0.914974 0.252558 0.262628
H58   H     H_    0.811811 0.046364 0.269255 0.275112
H59   H     H_    0.140597 0.873205 0.502609 0.171451
H60   H     H_    0.240036 0.931921 0.451320 0.122180
H61   H     H_    0.050243 0.040910 0.517510 0.242897
H62   H     H_    0.150427 0.104981 0.467200 0.228198
H63   H     H_    0.085307 0.989733 0.388944 0.264020
H64   H     H_    0.971240 0.054846 0.422596 0.301128
H65   H     H_    0.987012 0.919281 0.438427 0.257333
H66   H     H_    0.683934 0.528551 0.673376 0.242488
H67   H     H_    0.338985 0.422563 0.322995 0.221693
H68   H     H_    0.631351 0.174189 0.464662 0.203253
N1    N     N_R   0.498444 0.525881 0.148861 -0.322846
N2    N     N_R   0.510692 0.529540 0.852234 -0.339874
N3    N     N_R   0.207800 0.519350 0.510590 -0.177528
N4    N     N_R   0.792200 0.480650 0.489410 -0.170175
O1    O     O_R   0.421690 0.658830 0.502820 -0.636929
O2    O     O_2   0.581686 0.364617 0.847447 -0.481639
O3    O     O_2   0.573707 0.361837 0.148379 -0.539188
O4    O     O_2   0.437218 0.694468 0.852632 -0.539320
O5    O     O_3   0.189814 0.506409 0.409726 -0.600467
O6    O     O_3   0.811630 0.571143 0.577580 -0.610733
O7    O     O_3   0.307361 0.505112 0.799108 -0.603868
O8    O     O_3   0.674860 0.619107 0.202815 -0.628141
O9    O     O_3   0.710101 0.552519 0.782702 -0.591589
O10   O     O_3   0.320554 0.423641 0.211084 -0.616688
O11   O     O_3   0.737701 0.017531 0.440968 -0.660219
O12   O     O_R   0.578310 0.341170 0.497180 -0.615320
O13   O     O_3   0.251623 0.979228 0.538112 -0.643941
O14   O     O_R   0.609320 0.646410 0.496030 -0.650562
O15   O     O_R   0.390680 0.353590 0.503970 -0.610689
O16   O     O_R   0.406170 0.506240 0.587240 -0.637343
O17   O     O_R   0.593830 0.493760 0.412760 -0.633935
O18   O     O_R   0.593790 0.493820 0.580450 -0.573899
O19   O     O_R   0.406210 0.506180 0.419550 -0.591403
O20   O     O_2   0.424913 0.689491 0.154261 -0.520889
Zn1   Zn    Zn3+2 0.374720 0.508290 0.504530 0.965491
Zn2   Zn    Zn3+2 0.625280 0.491710 0.495470 0.965306

loop_
_geom_bond_atom_site_label_1
_geom_bond_atom_site_label_2
_ccdc_geom_bond_type
C21   C27   A    
C51   C52   S    
C15   H68   S    
C60   H40   S    
C12   O12   A    
C69   C70   S    
C48   H14   S    
C52   H22   S    
C44   O5    S    
C4    O10   S    
C63   H48   S    
C56   H56   S    
C25   N4    A    
C30   O2    S    
C46   H8    S    
C26   N3    A    
C35   C37   A    
C49   C50   S    
C52   C53   S    
C21   C24   A    
C51   O7    S    
C53   H26   S    
C7    C15   A    
O1    Zn1   S    
C29   C38   A    
C40   H1    S    
C31   C33   A    
C20   C22   A    
C33   C36   A    
C63   H49   S    
C67   C72   A    
C68   H60   S    
C69   H62   S    
C48   O6    S    
C16   O16   A    
C5    N2    S    
C13   H3    S    
C60   H42   S    
C44   H5    S    
C9    C19   A    
C31   N1    A    
C57   H32   S    
C50   H17   S    
C1    O1    A    
C26   O5    S    
C11   H4    S    
C65   H54   S    
C49   H15   S    
C66   H57   S    
N4    Zn2   S    
C68   O13   S    
C62   H46   S    
C16   C67   S    
C34   O8    S    
C64   O11   S    
C22   H34   S    
C51   H20   S    
C65   H53   S    
C35   C41   A    
C59   H39   S    
C44   C46   S    
C62   C63   S    
C57   H33   S    
C37   C39   A    
C10   C13   A    
C47   H9    S    
C48   H13   S    
C31   O3    S    
C47   H10   S    
C40   C42   A    
C46   H7    S    
C41   C43   A    
C12   O15   A    
C23   O7    S    
C53   H27   S    
C55   C57   S    
C55   H30   S    
C2    C71   A    
C41   H12   S    
O16   Zn1   S    
C1    C8    S    
O19   Zn1   S    
C63   H50   S    
C47   H11   S    
C64   C65   S    
C68   H59   S    
C2    C4    A    
C6    N1    S    
C54   C55   S    
C70   H64   S    
C55   H31   S    
C60   H41   S    
C59   C60   S    
C15   C19   A    
C20   C28   A    
C58   C59   S    
C7    C12   S    
C27   C28   A    
O14   Zn2   S    
C8    C11   A    
C14   H2    S    
C45   H45   S    
C51   H21   S    
C49   H16   S    
C46   C47   S    
C61   H43   S    
C58   O9    S    
C22   N4    A    
C64   H51   S    
C50   H19   S    
C29   N1    A    
C58   H37   S    
C34   C56   A    
C24   H23   S    
C32   N2    A    
C36   C37   A    
C70   H65   S    
O18   Zn2   S    
C9    C11   A    
C29   O20   S    
C54   H28   S    
C52   H24   S    
C57   H35   S    
C16   O18   A    
C48   C49   S    
C5    C23   A    
O17   Zn2   S    
C3    C5    A    
C64   H52   S    
C7    C13   A    
C24   N3    A    
Br3   C42   S    
C14   C18   A    
C32   C35   A    
C32   O4    S    
C30   C39   A    
C61   O10   S    
C3    C72   A    
C3    O9    S    
C59   H38   S    
C53   H25   S    
C70   H63   S    
C17   C71   S    
C56   C71   A    
C17   O19   A    
C6    C34   A    
C54   H29   S    
C1    O14   A    
C10   C18   A    
C10   O13   S    
C25   C27   A    
C26   C28   A    
C30   N2    A    
C69   H61   S    
C33   C40   A    
C68   C69   S    
C36   C38   A    
C66   H55   S    
C61   H44   S    
C44   H6    S    
Br2   C21   S    
C38   C43   A    
C65   C66   S    
O15   Zn1   S    
C39   C42   A    
C50   H18   S    
C17   O17   A    
C54   O8    S    
C62   H47   S    
C23   C45   A    
C58   H36   S    
Br1   C20   S    
C4    C6    A    
C61   C62   S    
C45   C67   A    
C8    C14   A    
C66   H58   S    
O12   Zn2   S    
C18   C19   A    
C2    H67   S    
C9    O11   S    
N3    Zn1   S    
C25   O6    S    
Br4   C43   S    
C72   H66   S    
