data_mof_unit_pretest_1945.cif
_audit_creation_date              2012-12-10T19:51:55-0500
_audit_creation_method            fapswitch 2.2
_symmetry_space_group_name_H-M    P1
_symmetry_Int_Tables_number       1
_space_group_crystal_system       triclinic
_cell_length_a                    25.971465
_cell_length_b                    25.959692
_cell_length_c                    22.213312
_cell_angle_alpha                 90.077035
_cell_angle_beta                  125.767545
_cell_angle_gamma                 89.846096
_cell_volume                      12151.7846084

loop_
_atom_site_label
_atom_site_type_symbol
_atom_type_description
_atom_site_fract_x
_atom_site_fract_y
_atom_site_fract_z
_atom_type_partial_charge
C1    C     C_R   0.650332 0.749999 0.300686 0.802461
C2    C     C_R   0.650321 0.250019 0.300630 0.810280
C3    C     C_R   0.150332 0.249998 0.300687 0.802628
C4    C     C_R   0.150319 0.750018 0.300631 0.810518
C5    C     C_3   0.673623 0.470164 0.366610 -0.328666
C6    C     C_3   0.673934 0.529412 0.366422 -0.330494
C7    C     C_3   0.175317 0.970166 0.366422 -0.329001
C8    C     C_3   0.175587 0.029406 0.366234 -0.330568
C9    C     C_3   0.466750 0.232254 0.025553 -0.250731
C10   C     C_3   0.465983 0.766668 0.025594 -0.249445
C11   C     C_3   0.966074 0.734070 0.025536 -0.250745
C12   C     C_3   0.965531 0.265302 0.025593 -0.249410
C13   C     C_3   0.949796 0.781868 0.974524 -0.245156
C14   C     C_3   0.950119 0.217659 0.974555 -0.244230
C15   C     C_3   0.448622 0.280370 0.974528 -0.244906
C16   C     C_3   0.449200 0.718758 0.974556 -0.244168
C17   C     C_1   0.889187 0.749801 0.778579 -0.077821
C18   C     C_1   0.889030 0.250268 0.778544 -0.084035
C19   C     C_1   0.389177 0.249780 0.778574 -0.077847
C20   C     C_1   0.389027 0.750278 0.778543 -0.083910
C21   C     C_1   0.610746 0.250028 0.221422 -0.066902
C22   C     C_1   0.610682 0.750013 0.221466 -0.065836
C23   C     C_1   0.110736 0.750030 0.221426 -0.066720
C24   C     C_1   0.110684 0.250007 0.221468 -0.065720
C25   C     C_3   0.978515 0.701793 0.976328 -0.124510
C26   C     C_3   0.977319 0.298097 0.976353 -0.124678
C27   C     C_3   0.480371 0.201405 0.976329 -0.124622
C28   C     C_3   0.478691 0.798404 0.976349 -0.124716
C29   C     C_3   0.962605 0.749077 0.926179 0.023783
C30   C     C_3   0.962271 0.250969 0.926177 0.024471
C31   C     C_3   0.462631 0.249006 0.926169 0.023831
C32   C     C_3   0.462287 0.751011 0.926173 0.024401
C33   C     C_3   0.549629 0.219692 0.024870 0.352580
C34   C     C_3   0.548451 0.781144 0.024863 0.351897
C35   C     C_3   0.048442 0.718341 0.024892 0.352596
C36   C     C_3   0.047549 0.282148 0.024872 0.351693
C37   C     C_3   0.536757 0.250456 0.073814 0.021909
C38   C     C_3   0.536493 0.749521 0.073839 0.021529
C39   C     C_3   0.036747 0.750498 0.073823 0.021846
C40   C     C_3   0.036508 0.249492 0.073843 0.021427
C41   C     C_3   0.032572 0.765189 0.975061 0.343892
C42   C     C_3   0.032538 0.235446 0.975036 0.343204
C43   C     C_3   0.531942 0.266850 0.975022 0.343628
C44   C     C_3   0.532094 0.734182 0.975026 0.343158
C45   C     C_R   0.849666 0.749971 0.699373 0.840179
C46   C     C_R   0.849610 0.250043 0.699320 0.825826
C47   C     C_R   0.349663 0.249968 0.699371 0.840044
C48   C     C_R   0.349609 0.750045 0.699319 0.825533
C49   C     C_3   0.518927 0.298049 0.023622 -0.123259
C50   C     C_3   0.519996 0.702122 0.023650 -0.125339
C51   C     C_3   0.020749 0.797781 0.023649 -0.123203
C52   C     C_3   0.021369 0.202354 0.023657 -0.125223
C53   C     C_1   0.922393 0.749523 0.845215 0.117574
C54   C     C_1   0.922133 0.250557 0.845192 0.120397
C55   C     C_1   0.422393 0.249477 0.845209 0.117784
C56   C     C_1   0.422135 0.750581 0.845190 0.120442
C57   C     C_1   0.577403 0.250129 0.154783 0.119712
C58   C     C_1   0.577236 0.749885 0.154819 0.118799
C59   C     C_1   0.077384 0.750144 0.154789 0.119742
C60   C     C_1   0.077241 0.249870 0.154822 0.118808
C61   C     C_R   0.493868 0.751276 0.435092 0.015808
C62   C     C_R   0.505846 0.285524 0.459031 0.036433
C63   C     C_R   0.993867 0.251283 0.435093 0.015867
C64   C     C_R   0.005846 0.785524 0.459034 0.036844
C65   C     C_R   0.554709 0.751800 0.500611 -0.100269
C66   C     C_R   0.551529 0.246885 0.494608 -0.114928
C67   C     C_R   0.054708 0.251800 0.500612 -0.100364
C68   C     C_R   0.051531 0.746886 0.494611 -0.115021
C69   C     C_R   0.561761 0.757773 0.567911 -0.179972
C70   C     C_R   0.537671 0.202916 0.519523 -0.191131
C71   C     C_R   0.061762 0.257768 0.567912 -0.179836
C72   C     C_R   0.037673 0.702917 0.519528 -0.191005
C73   C     C_R   0.508977 0.755078 0.570151 0.467848
C74   C     C_R   0.482087 0.200458 0.516069 0.458000
C75   C     C_R   0.008978 0.255073 0.570153 0.467914
C76   C     C_R   0.982089 0.700458 0.516074 0.458031
C77   C     C_R   0.447272 0.749079 0.502629 -0.177793
C78   C     C_R   0.441667 0.244429 0.491532 -0.195064
C79   C     C_R   0.947272 0.249079 0.502630 -0.177817
C80   C     C_R   0.941667 0.744429 0.491534 -0.195219
C81   C     C_R   0.441405 0.750196 0.435938 -0.059145
C82   C     C_R   0.452545 0.284617 0.458480 -0.055106
C83   C     C_R   0.941405 0.250202 0.435939 -0.059186
C84   C     C_R   0.952545 0.784616 0.458482 -0.054953
C85   C     C_3   0.404475 0.719714 0.364830 0.345979
C86   C     C_3   0.453030 0.342245 0.466122 0.381586
C87   C     C_3   0.904472 0.219725 0.364827 0.345982
C88   C     C_3   0.953028 0.842244 0.466125 0.381836
C89   C     C_R   0.889355 0.748793 0.498453 0.800683
C90   C     C_R   0.890528 0.249344 0.500931 0.794069
C91   C     C_R   0.389355 0.248794 0.498453 0.800631
C92   C     C_R   0.390528 0.749344 0.500931 0.794032
C93   C     C_3   0.463567 0.721278 0.364864 -0.525669
C94   C     C_3   0.512257 0.342865 0.466666 -0.504644
C95   C     C_3   0.963563 0.221289 0.364860 -0.525522
C96   C     C_3   0.012257 0.842865 0.466671 -0.505512
C97   C     C_R   0.751834 0.973144 0.447746 0.123993
C98   C     C_R   0.751966 0.026421 0.447669 0.128927
C99   C     C_R   0.251831 0.473144 0.447744 0.123969
C100  C     C_R   0.251963 0.526420 0.447667 0.128856
C101  C     C_R   0.754371 0.945865 0.503488 -0.084616
C102  C     C_R   0.754391 0.054003 0.503300 -0.091660
C103  C     C_R   0.254371 0.445865 0.503488 -0.084735
C104  C     C_R   0.254390 0.554003 0.503299 -0.091765
C105  C     C_R   0.763667 0.973098 0.563863 -0.182866
C106  C     C_R   0.763650 0.026951 0.563752 -0.187756
C107  C     C_R   0.263669 0.473098 0.563863 -0.182563
C108  C     C_R   0.263652 0.526951 0.563753 -0.187476
C109  C     C_3   0.703403 0.029145 0.365120 -0.363720
C110  C     C_3   0.703468 0.970049 0.365464 -0.369949
C111  C     C_3   0.203398 0.529145 0.365119 -0.363669
C112  C     C_3   0.203463 0.470048 0.365463 -0.369858
C113  C     C_R   0.610040 0.750156 0.500087 0.836845
C114  C     C_R   0.609790 0.250005 0.499860 0.838789
C115  C     C_R   0.110040 0.250156 0.500086 0.836827
C116  C     C_R   0.109791 0.750005 0.499861 0.838826
C117  C     C_R   0.750132 0.890104 0.500161 0.814078
C118  C     C_R   0.750089 0.109853 0.500023 0.797459
C119  C     C_R   0.250132 0.390104 0.500161 0.814185
C120  C     C_R   0.250089 0.609853 0.500023 0.797585
C121  C     C_R   0.749834 0.609839 0.501187 0.819601
C122  C     C_R   0.749655 0.390141 0.501316 0.845638
C123  C     C_R   0.249838 0.109843 0.501147 0.819677
C124  C     C_R   0.249661 0.890138 0.501268 0.846073
C125  C     C_R   0.699658 0.526481 0.446909 0.101853
C126  C     C_R   0.699455 0.473629 0.447082 0.091860
C127  C     C_R   0.200107 0.026482 0.446332 0.102166
C128  C     C_R   0.199914 0.973620 0.446497 0.091932
C129  C     C_R   0.748123 0.554099 0.507710 -0.154634
C130  C     C_R   0.747560 0.445827 0.508143 -0.149450
C131  C     C_R   0.248132 0.054096 0.507519 -0.154593
C132  C     C_R   0.247572 0.945832 0.507938 -0.149514
C133  C     C_R   0.791208 0.527343 0.575248 -0.117268
C134  C     C_R   0.790709 0.472520 0.575699 -0.125079
C135  C     C_R   0.290750 0.027346 0.575202 -0.116785
C136  C     C_R   0.290249 0.972522 0.575643 -0.124834
H1    H     H_    0.608733 0.760765 0.619578 0.188056
H2    H     H_    0.569914 0.170340 0.541782 0.192676
H3    H     H_    0.108735 0.260756 0.619579 0.188061
H4    H     H_    0.069918 0.670341 0.541788 0.192757
H5    H     H_    0.486995 0.683322 0.373597 0.232218
H6    H     H_    0.556639 0.354918 0.520146 0.209981
H7    H     H_    0.986988 0.183332 0.373588 0.231936
H8    H     H_    0.056637 0.854918 0.520153 0.209988
H9    H     H_    0.457640 0.744753 0.319367 0.210704
H10   H     H_    0.504801 0.361199 0.416913 0.238056
H11   H     H_    0.957637 0.244767 0.319366 0.210854
H12   H     H_    0.004801 0.861200 0.416920 0.237516
H13   H     H_    0.768849 0.952958 0.609795 0.184241
H14   H     H_    0.768804 0.047247 0.609617 0.185195
H15   H     H_    0.268852 0.452958 0.609797 0.184471
H16   H     H_    0.268807 0.547247 0.609619 0.185399
H17   H     H_    0.657883 0.046090 0.350036 0.145995
H18   H     H_    0.657614 0.953796 0.350110 0.157657
H19   H     H_    0.157879 0.546089 0.350037 0.146254
H20   H     H_    0.157610 0.453795 0.350111 0.157869
H21   H     H_    0.708555 0.452921 0.358725 0.143306
H22   H     H_    0.709109 0.545890 0.358536 0.141884
H23   H     H_    0.210887 0.952956 0.359592 0.143118
H24   H     H_    0.211350 0.045908 0.359364 0.141607
H25   H     H_    0.908785 0.808167 0.953252 0.191008
H26   H     H_    0.909610 0.190965 0.953312 0.191447
H27   H     H_    0.406629 0.305485 0.953264 0.191162
H28   H     H_    0.407935 0.692936 0.953315 0.191596
H29   H     H_    0.440014 0.217916 0.046903 0.188684
H30   H     H_    0.438861 0.780127 0.046958 0.189041
H31   H     H_    0.938797 0.721173 0.046865 0.188719
H32   H     H_    0.938039 0.277673 0.046952 0.189115
O1    O     O_3   0.749980 0.749980 0.500000 -0.514335
O2    O     O_3   0.749980 0.250020 0.500000 -0.512314
O3    O     O_3   0.249980 0.249980 0.500000 -0.514438
O4    O     O_3   0.249980 0.750020 0.500000 -0.512400
O5    O     O_R   0.887330 0.719620 0.543100 -0.620778
O6    O     O_R   0.887330 0.280380 0.543100 -0.627571
O7    O     O_R   0.387330 0.219620 0.543100 -0.620792
O8    O     O_R   0.387330 0.780380 0.543100 -0.627689
O9    O     O_R   0.612630 0.719620 0.456900 -0.620775
O10   O     O_R   0.612630 0.280380 0.456900 -0.624030
O11   O     O_R   0.112630 0.219620 0.456900 -0.620994
O12   O     O_R   0.112630 0.780380 0.456900 -0.624175
O13   O     O_R   0.698160 0.780350 0.335610 -0.611153
O14   O     O_R   0.698160 0.219650 0.335610 -0.607341
O15   O     O_R   0.198160 0.280350 0.335610 -0.611158
O16   O     O_R   0.198160 0.719650 0.335610 -0.607278
O17   O     O_R   0.801810 0.780340 0.664390 -0.639551
O18   O     O_R   0.801810 0.219660 0.664390 -0.633909
O19   O     O_R   0.301810 0.280340 0.664390 -0.639353
O20   O     O_R   0.301810 0.719660 0.664390 -0.633822
O21   O     O_R   0.637440 0.719620 0.335610 -0.635682
O22   O     O_R   0.637440 0.280380 0.335610 -0.634591
O23   O     O_R   0.137440 0.219620 0.335610 -0.635573
O24   O     O_R   0.137440 0.780380 0.335610 -0.634615
O25   O     O_R   0.862520 0.719620 0.664390 -0.606334
O26   O     O_R   0.862520 0.280380 0.664390 -0.612602
O27   O     O_R   0.362520 0.219620 0.664390 -0.606353
O28   O     O_R   0.362520 0.780380 0.664390 -0.612371
O29   O     O_R   0.844240 0.780350 0.456900 -0.611234
O30   O     O_R   0.844240 0.219650 0.456900 -0.615440
O31   O     O_R   0.344240 0.280350 0.456900 -0.611279
O32   O     O_R   0.344240 0.719650 0.456900 -0.615440
O33   O     O_R   0.655730 0.780340 0.543100 -0.647660
O34   O     O_R   0.655730 0.219660 0.543100 -0.644971
O35   O     O_R   0.155730 0.280340 0.543100 -0.647581
O36   O     O_R   0.155730 0.719660 0.543100 -0.644950
O37   O     O_R   0.758800 0.865790 0.456890 -0.613193
O38   O     O_R   0.758800 0.134210 0.456890 -0.618727
O39   O     O_R   0.258800 0.365790 0.456890 -0.613207
O40   O     O_R   0.258800 0.634210 0.456890 -0.618723
O41   O     O_R   0.698070 0.634180 0.456910 -0.610314
O42   O     O_R   0.698070 0.365820 0.456910 -0.614980
O43   O     O_R   0.198070 0.134180 0.456910 -0.609695
O44   O     O_R   0.198070 0.865820 0.456910 -0.614407
O45   O     O_R   0.741170 0.865780 0.543090 -0.647706
O46   O     O_R   0.741170 0.134220 0.543090 -0.647685
O47   O     O_R   0.241170 0.365780 0.543090 -0.647591
O48   O     O_R   0.241170 0.634220 0.543090 -0.647585
O49   O     O_R   0.801880 0.634180 0.543110 -0.632056
O50   O     O_R   0.801880 0.365820 0.543110 -0.622727
O51   O     O_R   0.301880 0.134180 0.543110 -0.632120
O52   O     O_R   0.301880 0.865820 0.543110 -0.622850
Zn1   Zn    Zn3+2 0.824140 0.706600 0.561580 1.038491
Zn2   Zn    Zn3+2 0.824140 0.293400 0.561580 1.036282
Zn3   Zn    Zn3+2 0.324140 0.206600 0.561580 1.038463
Zn4   Zn    Zn3+2 0.324140 0.793400 0.561580 1.036207
Zn5   Zn    Zn3+2 0.762580 0.793360 0.438420 1.040419
Zn6   Zn    Zn3+2 0.762580 0.206640 0.438420 1.039907
Zn7   Zn    Zn3+2 0.262580 0.293360 0.438420 1.040431
Zn8   Zn    Zn3+2 0.262580 0.706640 0.438420 1.040001
Zn9   Zn    Zn3+2 0.737390 0.793360 0.561570 0.996937
Zn10  Zn    Zn3+2 0.737390 0.206640 0.561570 0.992212
Zn11  Zn    Zn3+2 0.237390 0.293360 0.561570 0.997248
Zn12  Zn    Zn3+2 0.237390 0.706640 0.561570 0.992422
Zn13  Zn    Zn3+2 0.675820 0.706600 0.438430 1.018058
Zn14  Zn    Zn3+2 0.675820 0.293400 0.438430 1.022415
Zn15  Zn    Zn3+2 0.175820 0.206600 0.438430 1.018433
Zn16  Zn    Zn3+2 0.175820 0.793400 0.438430 1.022764
C137  C     C_2   0.833900 0.556432 0.645083 0.986030
O53   O     O_2   0.811385 0.581942 0.670818 -0.616841
O54   O     O_R   0.899369 0.556022 0.679852 -0.718302
H33   H     H_    0.923252 0.577835 0.726498 0.362422
C138  C     C_2   0.831997 0.443425 0.646303 0.970294
O55   O     O_2   0.888934 0.452033 0.687553 -0.553346
O56   O     O_R   0.805403 0.405437 0.664832 -0.797735
H34   H     H_    0.838112 0.387726 0.713518 0.362326
C139  C     C_2   0.332919 0.056465 0.645143 0.985278
O57   O     O_2   0.309877 0.082028 0.670210 -0.617231
O58   O     O_R   0.398514 0.056036 0.680770 -0.718391
H35   H     H_    0.422005 0.077871 0.727403 0.362376
C140  C     C_2   0.331017 0.943407 0.646327 0.969810
O59   O     O_2   0.387893 0.952105 0.688282 -0.553681
O60   O     O_R   0.304015 0.905291 0.664125 -0.798362
H36   H     H_    0.336398 0.887579 0.712947 0.361942
O61   O     O_3   0.520564 0.755408 0.639237 -0.719043
H37   H     H_    0.485608 0.737436 0.636274 0.341883
O62   O     O_3   0.470148 0.155282 0.538338 -0.716949
H38   H     H_    0.423621 0.150176 0.507717 0.339859
O63   O     O_3   0.020565 0.255398 0.639239 -0.718852
H39   H     H_    0.985604 0.237431 0.636272 0.341868
O64   O     O_3   0.970153 0.655282 0.538347 -0.716680
H40   H     H_    0.923626 0.650175 0.507727 0.339954
C141  C     C_2   0.386605 0.666023 0.371971 1.023627
O65   O     O_2   0.333840 0.649361 0.324172 -0.515510
O66   O     O_R   0.430538 0.635209 0.432588 -0.816824
H41   H     H_    0.412921 0.600024 0.430939 0.381345
C142  C     C_2   0.464431 0.360437 0.537666 0.947817
O67   O     O_2   0.429527 0.392915 0.536231 -0.550288
O68   O     O_R   0.514681 0.339867 0.605452 -0.828061
H42   H     H_    0.517153 0.354864 0.649234 0.356963
C143  C     C_2   0.886598 0.166033 0.371961 1.023611
O69   O     O_2   0.833831 0.149374 0.324162 -0.515245
O70   O     O_R   0.930529 0.135216 0.432576 -0.817094
H43   H     H_    0.912910 0.100031 0.430923 0.381297
C144  C     C_2   0.964426 0.860436 0.537667 0.947701
O71   O     O_2   0.929513 0.892906 0.536229 -0.550381
O72   O     O_R   0.014681 0.839872 0.605456 -0.828030
H44   H     H_    0.017150 0.854868 0.649236 0.356950
O73   O     O_3   0.352514 0.747266 0.305427 -0.717971
H45   H     H_    0.366472 0.782900 0.305601 0.342988
O74   O     O_3   0.400041 0.366353 0.403219 -0.705124
H46   H     H_    0.392707 0.350741 0.357947 0.344532
O75   O     O_3   0.852512 0.247281 0.305428 -0.717587
H47   H     H_    0.866472 0.282915 0.305607 0.343031
O76   O     O_3   0.900039 0.866351 0.403220 -0.705145
H48   H     H_    0.892705 0.850738 0.357949 0.344629
C145  C     C_2   0.726939 0.054489 0.324347 1.055889
O77   O     O_2   0.780535 0.072266 0.358358 -0.548252
O78   O     O_R   0.686662 0.057411 0.246990 -0.756785
H49   H     H_    0.707260 0.075172 0.225474 0.378554
C146  C     C_2   0.728918 0.943198 0.327500 1.056247
O79   O     O_2   0.695337 0.912418 0.277790 -0.574007
O80   O     O_R   0.790570 0.952980 0.349365 -0.726962
H50   H     H_    0.801219 0.933220 0.318566 0.375213
C147  C     C_2   0.226931 0.554489 0.324343 1.055999
O81   O     O_2   0.280529 0.572262 0.358352 -0.548256
O82   O     O_R   0.186650 0.557417 0.246986 -0.756677
H51   H     H_    0.207246 0.575178 0.225469 0.378517
C148  C     C_2   0.228912 0.443198 0.327496 1.056071
O83   O     O_2   0.195330 0.412419 0.277786 -0.573785
O84   O     O_R   0.290564 0.452980 0.349360 -0.726978
H52   H     H_    0.301212 0.433220 0.318560 0.375150
C149  C     C_2   0.609172 0.444786 0.318721 1.017207
O85   O     O_2   0.583332 0.427562 0.346056 -0.588488
O86   O     O_R   0.579432 0.440891 0.242386 -0.764325
H53   H     H_    0.536720 0.423121 0.215649 0.355725
C150  C     C_2   0.609771 0.555431 0.318204 1.014724
O87   O     O_2   0.583752 0.573123 0.345180 -0.578671
O88   O     O_R   0.580503 0.559365 0.241970 -0.764219
H54   H     H_    0.537957 0.577593 0.214986 0.356525
C151  C     C_2   0.110988 0.944739 0.317440 1.016093
O89   O     O_2   0.084208 0.927578 0.343668 -0.587728
O90   O     O_R   0.082465 0.940712 0.241380 -0.763491
H55   H     H_    0.039733 0.922907 0.213845 0.355824
C152  C     C_2   0.111503 0.055396 0.316966 1.013533
O91   O     O_2   0.084640 0.073107 0.342904 -0.578372
O92   O     O_R   0.083299 0.059290 0.240968 -0.763865
H56   H     H_    0.040714 0.077509 0.213222 0.356606
C153  C     C_2   0.539987 0.352484 0.047823 0.954850
O93   O     O_2   0.521230 0.386327 0.001167 -0.565138
O94   O     O_R   0.581008 0.364303 0.123262 -0.795710
H57   H     H_    0.592164 0.402248 0.132352 0.378178
C154  C     C_2   0.542537 0.647894 0.047906 0.953656
O95   O     O_2   0.524927 0.614195 0.001281 -0.564162
O96   O     O_R   0.583555 0.636099 0.123372 -0.800135
H58   H     H_    0.595655 0.598290 0.132529 0.376849
C155  C     C_2   0.043857 0.851828 0.047906 0.955011
O97   O     O_2   0.026526 0.885468 0.001283 -0.565493
O98   O     O_R   0.085117 0.863516 0.123367 -0.795690
H59   H     H_    0.097650 0.901191 0.132518 0.377460
C156  C     C_2   0.045450 0.148444 0.047930 0.953515
O99   O     O_2   0.028841 0.114918 0.001316 -0.564508
O100  O     O_R   0.086743 0.136746 0.123402 -0.800478
H60   H     H_    0.099899 0.099160 0.132580 0.376400
O101  O     O_3   0.066876 0.780839 0.947879 -0.713851
H61   H     H_    0.110317 0.788019 0.992429 0.354990
O102  O     O_3   0.067109 0.220454 0.947825 -0.710599
H62   H     H_    0.110681 0.213516 0.992362 0.351733
O103  O     O_3   0.565585 0.284315 0.947807 -0.714006
H63   H     H_    0.608735 0.292316 0.992345 0.354914
O104  O     O_3   0.566214 0.717817 0.947807 -0.710775
H64   H     H_    0.609581 0.710268 0.992342 0.351745
O105  O     O_3   0.602993 0.188581 0.052021 -0.698437
H65   H     H_    0.598130 0.174510 0.007458 0.354827
O106  O     O_3   0.600904 0.813157 0.051964 -0.699772
H66   H     H_    0.595599 0.827639 0.007379 0.356570
O107  O     O_3   0.100592 0.685731 0.052057 -0.698539
H67   H     H_    0.095183 0.670993 0.007502 0.354967
O108  O     O_3   0.099067 0.315267 0.051976 -0.699130
H68   H     H_    0.093339 0.330237 0.007394 0.356688
C157  C     C_2   0.956278 0.647593 0.951833 0.958216
O109  O     O_2   0.972775 0.614003 0.998311 -0.558711
O110  O     O_R   0.917051 0.635662 0.876289 -0.790949
H69   H     H_    0.905452 0.597802 0.866873 0.367222
C158  C     C_2   0.954043 0.352170 0.951981 0.968170
O111  O     O_2   0.970074 0.385622 0.998535 -0.556798
O112  O     O_R   0.914343 0.364133 0.876467 -0.808659
H70   H     H_    0.901992 0.401893 0.867150 0.360728
C159  C     C_2   0.460209 0.146856 0.951836 0.958758
O113  O     O_2   0.478037 0.113025 0.998318 -0.557889
O114  O     O_R   0.421388 0.134880 0.876290 -0.791842
H71   H     H_    0.411252 0.096778 0.866876 0.366362
C160  C     C_2   0.456967 0.852768 0.951972 0.968145
O115  O     O_2   0.473960 0.886414 0.998525 -0.556107
O116  O     O_R   0.417609 0.864782 0.876457 -0.808201
H72   H     H_    0.406348 0.902745 0.867138 0.361138

loop_
_geom_bond_atom_site_label_1
_geom_bond_atom_site_label_2
_ccdc_geom_bond_type
C113  O9    A    
C124  O52   A    
C159  O113  D    
C156  O100  S    
C36   C42   S    
O80   H50   S    
O6    Zn2   S    
C28   C160  S    
O103  H63   S    
O4    Zn12  S    
C149  O85   D    
C47   O27   A    
C118  O38   A    
C48   O20   A    
C5    C6    S    
C7    H23   S    
C10   C28   S    
O70   H43   S    
C100  C104  A    
O108  H68   S    
C4    O24   A    
C64   C84   A    
C79   C90   S    
O44   Zn16  S    
C13   C51   S    
C14   C52   S    
O72   H44   S    
C115  O35   A    
C5    C126  S    
O38   Zn6   S    
C113  O33   A    
C7    C128  S    
O26   Zn2   S    
O19   Zn11  S    
C98   C109  S    
C139  O57   D    
C11   H31   S    
C130  C134  A    
C158  O112  S    
O4    Zn16  S    
C25   C29   S    
C27   C31   S    
O96   H58   S    
C120  O40   A    
C84   C88   S    
C135  C136  A    
O15   Zn7   S    
C4    C23   S    
C1    O13   A    
O13   Zn5   S    
C98   C102  A    
C12   C40   S    
C134  C138  S    
C96   H8    S    
C78   C82   A    
O86   H53   S    
C79   C83   A    
C68   C72   A    
C97   C101  A    
C151  O89   D    
C46   O18   A    
C117  O45   A    
O28   Zn4   S    
C68   C116  S    
C129  C133  A    
C70   H2    S    
C143  O70   S    
C85   O73   S    
O16   Zn8   S    
O45   Zn9   S    
C44   C50   S    
C65   C113  S    
C2    O22   A    
C6    C125  S    
C22   C58   T    
O3    Zn3   S    
O18   Zn10  S    
C90   O6    A    
C10   C38   S    
C9    C15   S    
C145  O78   S    
C10   C16   S    
C11   C13   S    
C45   O17   A    
C66   C70   A    
O43   Zn15  S    
C15   C49   S    
C127  C131  A    
C49   C153  S    
O102  H62   S    
C148  O83   D    
C61   C65   A    
O98   H59   S    
O12   Zn16  S    
C100  C111  S    
C154  O95   D    
O114  H71   S    
O7    Zn3   S    
C25   C157  S    
C111  H19   S    
C41   C51   S    
C37   C57   S    
O30   Zn6   S    
C42   C52   S    
C39   C51   S    
C157  O109  D    
C40   C60   S    
C111  C112  S    
C20   C56   T    
C97   C98   A    
C7    C8    S    
O3    Zn15  S    
C27   C33   S    
C23   C59   T    
C30   C54   S    
C140  O59   D    
O1    Zn13  S    
C64   C68   A    
C17   C45   S    
O61   H37   S    
C19   C47   S    
C152  O92   S    
C11   C25   S    
C124  C132  S    
C138  O55   D    
C155  O98   S    
O2    Zn2   S    
C85   C93   S    
C150  O88   S    
C87   C95   S    
C107  C108  A    
C122  O42   A    
O21   Zn13  S    
C10   H30   S    
C107  H15   S    
O33   Zn9   S    
C1    C22   S    
C38   C58   S    
C137  O53   D    
C148  O84   S    
C3    C24   S    
C133  C137  S    
C6    H22   S    
C46   O26   A    
C151  O90   S    
O3    Zn11  S    
C62   C66   A    
C94   H6    S    
C95   H11   S    
C64   C96   S    
C99   C103  A    
O10   Zn14  S    
C12   C26   S    
C88   C144  S    
C62   C94   S    
C70   C74   A    
C147  O81   D    
C125  C129  A    
C132  C136  A    
C146  O79   D    
O37   Zn5   S    
C142  O68   S    
C110  C146  S    
C26   C30   S    
C41   O101  S    
C47   O19   A    
O112  H70   S    
C123  O51   A    
C73   C77   A    
O8    Zn4   S    
C29   C41   S    
C121  O49   A    
C76   C80   A    
C103  C107  A    
O68   H42   S    
C15   C31   S    
C16   C32   S    
C89   O29   A    
C61   C81   A    
O40   Zn8   S    
C51   C155  S    
O2    Zn10  S    
C144  O72   S    
C27   C159  S    
C35   C41   S    
C72   H4    S    
C119  O39   A    
C112  H20   S    
O76   H48   S    
C92   O32   A    
C3    O15   A    
C15   H27   S    
C81   C85   S    
O64   H40   S    
C1    O21   A    
C94   H10   S    
C83   C87   S    
C88   C96   S    
C95   H7    S    
C111  C147  S    
C8    C152  S    
C69   H1    S    
C135  C139  S    
O54   H33   S    
C89   O5    A    
C80   C84   A    
O5    Zn1   S    
C158  O111  D    
O60   H36   S    
C92   O8    A    
C160  O116  S    
C106  H14   S    
C35   O107  S    
C36   O108  S    
C13   C29   S    
C16   C50   S    
C117  O37   A    
C61   C93   S    
C126  C130  A    
O23   Zn15  S    
O56   H34   S    
C63   C95   S    
O32   Zn8   S    
C80   C89   S    
C153  O94   S    
C116  O36   A    
C108  H16   S    
C75   O63   S    
O116  H72   S    
C114  O34   A    
C69   C73   A    
C109  H17   S    
C74   O62   S    
O25   Zn1   S    
C62   C82   A    
C28   C34   S    
O92   H56   S    
C159  O114  S    
C143  O69   D    
O49   Zn1   S    
C18   C46   S    
O24   Zn16  S    
C34   O106  S    
C149  O86   S    
C6    C150  S    
C45   O25   A    
C96   H12   S    
C76   O64   S    
O88   H54   S    
O82   H51   S    
O14   Zn6   S    
O36   Zn12  S    
C124  O44   A    
C82   C86   S    
C16   H28   S    
C63   C83   A    
C14   H26   S    
C35   C39   S    
O84   H52   S    
C145  O77   D    
O4    Zn4   S    
C37   C49   S    
O101  H61   S    
O104  H64   S    
C28   C32   S    
C44   O104  S    
C39   C59   S    
C2    C21   S    
C118  O46   A    
C20   C48   S    
C31   C43   S    
C25   C35   S    
C73   O61   S    
C26   C36   S    
O3    Zn7   S    
C5    H21   S    
C139  O58   S    
C133  C134  A    
O1    Zn5   S    
C136  C140  S    
C127  C128  A    
C8    H24   S    
C17   C53   T    
C104  C108  A    
C93   H5    S    
C9    C27   S    
C160  O115  D    
C19   C55   T    
C33   O105  S    
C66   C114  S    
C123  C131  S    
C121  C129  S    
C71   H3    S    
O17   Zn9   S    
C105  C106  A    
C101  C117  S    
C9    H29   S    
O74   H46   S    
C42   O102  S    
O100  H60   S    
C109  C110  S    
O35   Zn11  S    
O4    Zn8   S    
C152  O91   D    
C141  O65   D    
C65   C69   A    
C67   C71   A    
O42   Zn14  S    
C155  O97   D    
C33   C37   S    
O51   Zn3   S    
O94   H57   S    
C52   C156  S    
C150  O87   D    
C74   C78   A    
C30   C42   S    
C86   C142  S    
C31   C55   S    
O20   Zn12  S    
O31   Zn7   S    
C32   C56   S    
C104  C120  S    
O29   Zn5   S    
O27   Zn3   S    
O106  H66   S    
C77   C92   S    
C119  O47   A    
C156  O99   D    
C72   C76   A    
O105  H65   S    
O2    Zn14  S    
O47   Zn11  S    
O63   H39   S    
C131  C135  A    
C43   O103  S    
C7    C151  S    
C2    O14   A    
C67   C115  S    
C86   C94   S    
O48   Zn12  S    
O1    Zn1   S    
O78   H49   S    
C154  O96   S    
C123  O43   A    
C93   H9    S    
O22   Zn14  S    
C77   C81   A    
C142  O67   D    
C102  C118  S    
O34   Zn10  S    
C109  C145  S    
C157  O110  S    
C48   O28   A    
C14   C30   S    
C128  C132  A    
O50   Zn2   S    
C101  C105  A    
C50   C154  S    
C63   C67   A    
C140  O60   S    
C26   C158  S    
C5    C149  S    
C33   C43   S    
C36   C40   S    
C34   C44   S    
O11   Zn15  S    
C141  O66   S    
C43   C49   S    
O9    Zn13  S    
O90   H55   S    
C114  O10   A    
O75   H47   S    
C40   C52   S    
C138  O56   S    
C87   O75   S    
C21   C57   T    
C110  H18   S    
C3    O23   A    
C8    C127  S    
C99   C100  A    
C24   C60   T    
C9    C37   S    
C144  O71   D    
C32   C44   S    
C91   O7    A    
C86   O74   S    
C4    O16   A    
C11   C39   S    
C12   C14   S    
C121  O41   A    
C137  O54   S    
C75   C79   A    
O62   H38   S    
C88   O76   S    
O52   Zn4   S    
O39   Zn7   S    
C116  O12   A    
C122  O50   A    
C34   C38   S    
C103  C119  S    
C85   C141  S    
C12   H32   S    
O58   H35   S    
C13   H25   S    
C38   C50   S    
C78   C91   S    
C120  O48   A    
C105  H13   S    
C90   O30   A    
C112  C148  S    
O2    Zn6   S    
C91   O31   A    
C147  O82   S    
C87   C143  S    
C71   C75   A    
C97   C110  S    
O110  H69   S    
C125  C126  A    
C29   C53   S    
O66   H41   S    
C99   C112  S    
C146  O80   S    
O1    Zn9   S    
C102  C106  A    
C153  O93   D    
O41   Zn13  S    
C18   C54   T    
O107  H67   S    
O73   H45   S    
C122  C130  S    
C115  O11   A    
O46   Zn10  S    
