data_mof_unit_pretest_1893.cif
_audit_creation_date              2013-03-05T16:38:51-0500
_audit_creation_method            fapswitch 2.2
_symmetry_space_group_name_H-M    P1
_symmetry_Int_Tables_number       1
_space_group_crystal_system       triclinic
_cell_length_a                    18.933109
_cell_length_b                    18.529186
_cell_length_c                    23.478983
_cell_angle_alpha                 89.99636
_cell_angle_beta                  89.952188
_cell_angle_gamma                 89.744276
_cell_volume                      8236.69680489

loop_
_atom_site_label
_atom_site_type_symbol
_atom_site_description
_atom_site_fract_x
_atom_site_fract_y
_atom_site_fract_z
_atom_type_partial_charge
O1    O     O_R   0.398180 0.560840 0.499980 -0.585230
O2    O     O_R   0.601820 0.439160 0.500020 -0.578635
O3    O     O_R   0.601820 0.560840 0.500020 -0.581025
O4    O     O_R   0.398180 0.439160 0.499980 -0.574794
C1    C     C_R   0.365439 0.500175 0.500494 0.895910
C2    C     C_R   0.634534 0.499834 0.500514 0.899001
O5    O     O_R   0.499980 0.560830 0.416150 -0.568852
O6    O     O_R   0.500020 0.439170 0.583850 -0.571715
O7    O     O_R   0.500020 0.560830 0.583850 -0.570330
O8    O     O_R   0.499980 0.439170 0.416150 -0.571065
C3    C     C_R   0.500740 0.499987 0.389320 0.990023
C4    C     C_R   0.499365 0.499977 0.610692 0.964819
Zn1   Zn    Zn3+2 0.500000 0.581210 0.500000 1.120431
Zn2   Zn    Zn3+2 0.500000 0.418790 0.500000 1.121064
C5    C     C_R   0.559913 0.483210 0.879481 0.616783
C6    C     C_R   0.442060 0.482687 0.120586 0.616237
N1    N     N_R   0.496436 0.490519 0.852592 -0.334633
N2    N     N_R   0.505435 0.490215 0.147495 -0.335252
C7    C     C_R   0.433959 0.492132 0.881829 0.611291
C8    C     C_R   0.567904 0.492031 0.118276 0.611498
C9    C     C_R   0.433475 0.485999 0.941578 -0.108444
C10   C     C_R   0.568471 0.486041 0.058512 -0.108761
C11   C     C_R   0.499537 0.483911 0.970069 -0.040250
C12   C     C_R   0.502438 0.483818 0.030011 -0.039877
C13   C     C_R   0.562909 0.482466 0.938736 -0.063908
C14   C     C_R   0.439083 0.482054 0.061336 -0.064352
C15   C     C_R   0.370336 0.482846 0.974077 0.319112
C16   C     C_R   0.631645 0.483211 0.026005 0.318936
C17   C     C_R   0.374028 0.480250 0.033186 -0.139680
C18   C     C_R   0.627984 0.480799 0.966887 -0.140411
O9    O     O_2   0.619951 0.477372 0.848693 -0.497470
O10   O     O_2   0.382086 0.476578 0.151358 -0.493918
O11   O     O_2   0.373281 0.501129 0.852704 -0.455726
O12   O     O_2   0.628467 0.501132 0.147425 -0.452372
H1    H     H_    0.325188 0.478027 0.057196 0.227661
H2    H     H_    0.676849 0.478815 0.942870 0.227103
C19   C     C_R   0.538262 0.440741 0.239381 -0.170359
C20   C     C_R   0.463994 0.440601 0.760898 -0.173753
H3    H     H_    0.563898 0.396566 0.217143 0.212644
H4    H     H_    0.439109 0.396337 0.783301 0.212734
C21   C     C_R   0.539538 0.443064 0.298437 0.278579
C22   C     C_R   0.462247 0.442806 0.701856 0.276549
C23   C     C_R   0.503690 0.499648 0.327040 -0.305781
C24   C     C_R   0.497000 0.499600 0.673003 -0.310573
C25   C     C_R   0.470730 0.555651 0.295517 0.170689
C26   C     C_R   0.529647 0.555686 0.704335 0.167125
C27   C     C_R   0.474020 0.554781 0.235772 0.277673
C28   C     C_R   0.526837 0.554876 0.764097 0.275870
C29   C     C_R   0.506449 0.495895 0.208155 0.080198
C30   C     C_R   0.495255 0.495965 0.791920 0.080312
C31   C     C_R   0.731399 0.477095 0.566556 -0.070997
C32   C     C_R   0.268155 0.526088 0.565620 -0.060480
C33   C     C_R   0.243103 0.473304 0.473024 -0.096523
C34   C     C_R   0.757058 0.523794 0.471995 -0.089835
H5    H     H_    0.693662 0.459172 0.598224 0.184508
H6    H     H_    0.305638 0.546211 0.596582 0.189128
H7    H     H_    0.260982 0.453134 0.432144 0.190245
H8    H     H_    0.739387 0.541593 0.430398 0.189628
C35   C     C_R   0.802634 0.479109 0.580181 -0.036738
C36   C     C_R   0.196927 0.524294 0.579346 -0.040982
C37   C     C_R   0.171592 0.473128 0.486185 -0.063538
C38   C     C_R   0.828536 0.524215 0.485133 -0.065458
H9    H     H_    0.820026 0.462212 0.622076 0.181704
H10   H     H_    0.179317 0.543663 0.620535 0.182559
H11   H     H_    0.134089 0.453348 0.455111 0.174520
H12   H     H_    0.866243 0.541806 0.453348 0.174416
C39   C     C_R   0.851259 0.502044 0.539271 0.156639
C40   C     C_R   0.148564 0.498516 0.539383 0.156461
C41   C     C_R   0.708910 0.499422 0.512557 -0.022029
C42   C     C_R   0.290982 0.500657 0.512537 -0.022318
C43   C     C_R   0.963276 0.567030 0.553634 0.229061
C44   C     C_R   0.036477 0.434383 0.556039 0.228871
C45   C     C_R   0.037044 0.566452 0.552589 0.224119
C46   C     C_R   0.962702 0.434907 0.555037 0.224285
C47   C     C_R   0.073243 0.499936 0.551772 -0.196058
C48   C     C_R   0.926519 0.501301 0.551795 -0.196492
C49   C     C_R   0.553650 0.726368 0.473828 0.339019
C50   C     C_R   0.446998 0.273617 0.473109 0.337844
C51   C     C_R   0.446390 0.726793 0.526245 0.343583
C52   C     C_R   0.553040 0.273295 0.526968 0.340118
C53   C     C_R   0.555249 0.802656 0.474233 0.144265
C54   C     C_R   0.445441 0.197332 0.473508 0.141299
C55   C     C_R   0.444816 0.803103 0.525980 0.144545
C56   C     C_R   0.554695 0.196991 0.526733 0.141291
C57   C     C_R   0.500035 0.842065 0.500128 -0.163180
C58   C     C_R   0.500100 0.157973 0.500147 -0.162706
N3    N     N_R   0.500000 0.689440 0.500000 -0.229696
N4    N     N_R   0.500000 0.310560 0.500000 -0.229513
C59   C     C_R   0.500130 0.962111 0.551609 -0.082690
C60   C     C_R   0.501347 0.037920 0.448725 -0.085011
C61   C     C_R   0.500026 0.962134 0.448711 -0.083319
C62   C     C_R   0.498942 0.037919 0.551606 -0.084090
H13   H     H_    0.500674 0.933714 0.591920 0.190081
H14   H     H_    0.502828 0.066302 0.408424 0.187619
H15   H     H_    0.499446 0.933762 0.408393 0.189695
H16   H     H_    0.497483 0.066307 0.591908 0.188109
C63   C     C_R   0.500163 0.076887 0.500166 0.183247
C64   C     C_R   0.500043 0.923154 0.500155 0.181094
Br1   Br    Br    0.276284 0.479344 0.942980 -0.257179
Br2   Br    Br    0.725733 0.479940 0.057100 -0.254856
N5    N     N_R   0.608862 0.687738 0.445539 0.249521
O13   O     O_R   0.599463 0.665690 0.393541 -0.319894
O14   O     O_R   0.672349 0.688016 0.466723 -0.309352
N6    N     N_R   0.392500 0.312252 0.444019 0.249162
O15   O     O_R   0.328626 0.312301 0.464515 -0.311487
O16   O     O_R   0.402792 0.333108 0.391807 -0.332252
N7    N     N_R   0.391287 0.688571 0.554567 0.244577
O17   O     O_R   0.400635 0.667058 0.606733 -0.335411
O18   O     O_R   0.327792 0.689377 0.533401 -0.306614
N8    N     N_R   0.607437 0.311625 0.556017 0.245563
O19   O     O_R   0.671244 0.311453 0.535383 -0.303762
O20   O     O_R   0.597282 0.332045 0.608375 -0.344309
Br3   Br    Br    0.634618 0.851657 0.440361 -0.266305
Br4   Br    Br    0.366846 0.148290 0.438631 -0.273064
Br5   Br    Br    0.365498 0.852747 0.559987 -0.262240
Br6   Br    Br    0.633334 0.147461 0.561735 -0.268248
N9    N     N_R   0.580022 0.389377 0.328407 0.245872
O21   O     O_R   0.579092 0.322506 0.311505 -0.311538
O22   O     O_R   0.626847 0.408999 0.365828 -0.358274
N10   N     N_R   0.422524 0.388631 0.672192 0.247610
O23   O     O_R   0.425129 0.321764 0.689037 -0.308350
O24   O     O_R   0.374742 0.407660 0.635248 -0.371459
N11   N     N_R   0.433680 0.613110 0.323841 0.260117
O25   O     O_R   0.378376 0.599174 0.354828 -0.336099
O26   O     O_R   0.453349 0.679706 0.316774 -0.265732
N12   N     N_R   0.565954 0.613150 0.675811 0.261972
O27   O     O_R   0.621420 0.599272 0.644859 -0.351843
O28   O     O_R   0.545617 0.679724 0.682841 -0.262813
N13   N     N_R   0.443154 0.612425 0.203022 0.250776
O29   O     O_R   0.477417 0.640262 0.160333 -0.316263
O30   O     O_R   0.379571 0.635336 0.214202 -0.242569
N14   N     N_R   0.557294 0.612649 0.796638 0.251209
O31   O     O_R   0.522979 0.640549 0.839400 -0.316107
O32   O     O_R   0.620579 0.635630 0.785185 -0.244489
Br7   Br    Br    0.912284 0.657566 0.555192 -0.261389
Br8   Br    Br    0.087450 0.344036 0.560898 -0.266463
Br9   Br    Br    0.087731 0.656443 0.546855 -0.268102
Br10  Br    Br    0.911961 0.344719 0.552725 -0.271293

loop_
_geom_bond_atom_site_label_1
_geom_bond_atom_site_label_2
_geom_bond_distance
_ccdc_geom_bond_type
C2    C41   1.436496 S    
C51   C55   1.414158 A    
N5    O13   1.300037 A    
C15   C17   1.390458 A    
C21   C23   1.415590 A    
C49   N5    1.427745 S    
C52   C56   1.414073 A    
O3    C2    1.286597 A    
C51   N3    1.371748 A    
N11   O25   1.301338 A    
C27   C29   1.407619 A    
C25   N11   1.435452 S    
C40   C47   1.455329 S    
O5    C3    1.291475 A    
C46   Br10  1.932072 S    
C15   Br1   1.926485 S    
N12   O27   1.301307 A    
C46   C48   1.407511 A    
C38   C39   1.403140 A    
C27   N13   1.438291 S    
O1    C1    1.286137 A    
C7    C9    1.407468 A    
C56   C58   1.410153 A    
C20   C22   1.387261 A    
N9    O22   1.301652 A    
C43   Br7   1.932135 S    
C43   C48   1.406089 A    
C44   Br8   1.932005 S    
C62   H16   1.082924 S    
C58   C63   1.502457 S    
O7    Zn1   2.004579 S    
N8    O19   1.301198 A    
C57   C64   1.502512 S    
C32   C36   1.386818 A    
C35   C39   1.397402 A    
C33   C37   1.388519 A    
N10   O24   1.301368 A    
N14   O31   1.301277 A    
O6    Zn2   2.004627 S    
N7    O17   1.300001 A    
C3    C23   1.463308 S    
C60   C63   1.407303 A    
C31   H5    1.083876 S    
O3    Zn1   1.962716 S    
C8    O12   1.347090 S    
C16   Br2   1.926444 S    
C28   C30   1.407440 A    
C9    C15   1.419070 A    
C56   Br6   1.929806 S    
C10   C16   1.419085 A    
C19   C21   1.387477 A    
C45   C47   1.407675 A    
O2    C2    1.286038 A    
C22   C24   1.415861 A    
C44   C47   1.406183 A    
C33   C42   1.394561 A    
N6    O16   1.300102 A    
N6    O15   1.301175 A    
C24   C26   1.417680 A    
C62   C63   1.407327 A    
C60   H14   1.082915 S    
C25   C27   1.404165 A    
C6    C14   1.392377 A    
C19   H3    1.083641 S    
C26   C28   1.404181 A    
C38   H12   1.083514 S    
C50   N6    1.427646 S    
C55   Br5   1.929930 S    
C32   C42   1.399847 A    
C54   Br4   1.929975 S    
C44   C46   1.396989 A    
C7    O11   1.347130 S    
C43   C45   1.396848 A    
C33   H7    1.083478 S    
C34   C38   1.388326 A    
C54   C58   1.410073 A    
C59   H13   1.082900 S    
C1    C42   1.437535 S    
C19   C29   1.392771 A    
C50   C54   1.413979 A    
C49   C53   1.414031 A    
O6    C4    1.291033 A    
Zn1   N3    2.005412 S    
C51   N7    1.427452 S    
C6    N2    1.364219 A    
C59   C62   1.404733 A    
C23   C25   1.417355 A    
C49   N3    1.372112 A    
C14   C17   1.398840 A    
N14   O32   1.301251 A    
C55   C57   1.410030 A    
C8    C10   1.407619 A    
C9    C11   1.419272 A    
O8    Zn2   2.004579 S    
C10   C12   1.419288 A    
C31   C35   1.387045 A    
C53   Br3   1.930043 S    
N10   O23   1.301301 A    
N13   O29   1.301279 A    
C34   H8    1.083538 S    
C50   N4    1.371651 A    
C13   C18   1.398880 A    
C5    N1    1.364227 A    
N12   O28   1.301094 A    
C26   N12   1.435426 S    
C28   N14   1.438249 S    
C12   C14   1.407001 A    
O4    C1    1.286977 A    
N1    C30   1.428269 S    
C5    O9    1.350510 S    
C20   C30   1.392626 A    
C6    O10   1.350521 S    
C17   H1    1.083534 S    
C35   H9    1.083333 S    
C18   H2    1.083546 S    
C59   C64   1.407348 A    
C36   H10   1.083340 S    
C16   C18   1.390562 A    
Zn2   N4    2.005412 S    
C52   N4    1.371481 A    
N9    O21   1.301277 A    
C20   H4    1.083669 S    
C37   C40   1.403130 A    
C22   N10   1.437401 S    
C60   C61   1.404585 A    
N7    O18   1.301229 A    
C34   C41   1.394303 A    
C45   Br9   1.932221 S    
N1    C7    1.367351 A    
N2    C8    1.367343 A    
C11   C13   1.407032 A    
C61   C64   1.407292 A    
O4    Zn2   1.962720 S    
O2    Zn2   1.966022 S    
O7    C4    1.291796 A    
N8    O20   1.300132 A    
N11   O26   1.301095 A    
O8    C3    1.291112 A    
C11   C12   1.408507 A    
C61   H15   1.082933 S    
C37   H11   1.083522 S    
O5    Zn1   2.004627 S    
O1    Zn1   1.966026 S    
C36   C40   1.397262 A    
C5    C13   1.392519 A    
N5    O14   1.301263 A    
C52   N8    1.427610 S    
C4    C24   1.463659 S    
C39   C48   1.455180 S    
C31   C41   1.399685 A    
C21   N9    1.437448 S    
C53   C57   1.409922 A    
C32   H6    1.083680 S    
N2    C29   1.428297 S    
N13   O30   1.301248 A    
