data_mof_unit_pretest_1960.cif
_audit_creation_date              2012-10-26T17:43:25-0400
_audit_creation_method            fapswitch 2.2
_symmetry_space_group_name_H-M    P1
_symmetry_Int_Tables_number       1
_space_group_crystal_system       tetragonal
_cell_length_a                    18.368213
_cell_length_b                    18.368213
_cell_length_c                    21.828365
_cell_angle_alpha                 90.0
_cell_angle_beta                  90.0
_cell_angle_gamma                 90.0
_cell_volume                      7364.6993269

loop_
_atom_site_label
_atom_site_type_symbol
_atom_type_description
_atom_site_fract_x
_atom_site_fract_y
_atom_site_fract_z
_atom_type_partial_charge
C1    C     C_R   1.000000 0.360087 0.000000 0.547462
C2    C     C_1   0.282528 1.000000 0.000000 -0.055462
C3    C     C_1   0.000000 0.717472 0.000000 -0.055462
C4    C     C_1   0.717472 0.000000 0.000000 -0.055462
C5    C     C_1   0.500000 0.782528 0.500000 -0.055462
C6    C     C_1   0.782528 0.500000 0.500000 -0.055462
C7    C     C_1   0.500000 0.217472 0.500000 -0.055462
C8    C     C_1   0.217472 0.500000 0.500000 -0.055462
C9    C     C_R   0.000000 0.500000 0.881224 0.531078
C10   C     C_R   0.500000 0.000000 0.881224 0.531078
C11   C     C_R   0.000000 0.500000 0.118776 0.531078
C12   C     C_R   0.360087 1.000000 0.000000 0.547462
C13   C     C_R   0.500000 0.000000 0.118776 0.531078
C14   C     C_R   0.500000 1.000000 0.381224 0.531078
C15   C     C_R   0.000000 0.500000 0.381224 0.531078
C16   C     C_R   0.500000 0.000000 0.618776 0.531078
C17   C     C_R   0.000000 0.500000 0.618776 0.531078
C18   C     C_R   0.086414 0.603882 0.812811 -0.090059
C19   C     C_R   0.603882 0.913585 0.812811 -0.090059
C20   C     C_R   0.913586 0.396118 0.812811 -0.090059
C21   C     C_R   0.396118 0.086414 0.812811 -0.090059
C22   C     C_R   0.086414 0.396118 0.187189 -0.090059
C23   C     C_R   0.000000 0.639913 0.000000 0.547462
C24   C     C_R   0.603882 0.086414 0.187189 -0.090060
C25   C     C_R   0.913586 0.603882 0.187189 -0.090059
C26   C     C_R   0.396118 0.913586 0.187189 -0.090059
C27   C     C_R   0.586414 0.103882 0.312811 -0.090059
C28   C     C_R   0.103882 0.413585 0.312811 -0.090059
C29   C     C_R   0.413586 0.896118 0.312811 -0.090059
C30   C     C_R   0.896118 0.586414 0.312811 -0.090059
C31   C     C_R   0.586414 0.896118 0.687189 -0.090059
C32   C     C_R   0.103882 0.586414 0.687189 -0.090060
C33   C     C_R   0.413585 0.103882 0.687189 -0.090059
C34   C     C_R   0.639913 0.000000 0.000000 0.547462
C35   C     C_R   0.896118 0.413586 0.687189 -0.090059
C36   C     C_R   0.136502 0.646634 0.781205 -0.117160
C37   C     C_R   0.646634 0.863498 0.781205 -0.117160
C38   C     C_R   0.863498 0.353366 0.781205 -0.117160
C39   C     C_R   0.353366 0.136502 0.781205 -0.117160
C40   C     C_R   0.136502 0.353366 0.218795 -0.117160
C41   C     C_R   0.646634 0.136502 0.218795 -0.117160
C42   C     C_R   0.863498 0.646634 0.218795 -0.117160
C43   C     C_R   0.353366 0.863498 0.218795 -0.117160
C44   C     C_R   0.636502 0.146634 0.281205 -0.117160
C45   C     C_R   0.500000 0.860087 0.500000 0.547462
C46   C     C_R   0.146634 0.363498 0.281205 -0.117160
C47   C     C_R   0.363498 0.853366 0.281205 -0.117160
C48   C     C_R   0.853366 0.636502 0.281205 -0.117160
C49   C     C_R   0.636502 0.853366 0.718795 -0.117160
C50   C     C_R   0.146634 0.636502 0.718795 -0.117160
C51   C     C_R   0.363498 0.146634 0.718795 -0.117160
C52   C     C_R   0.853366 0.363498 0.718795 -0.117160
C53   C     C_R   0.139636 0.000000 0.000000 0.555664
C54   C     C_R   0.000000 0.860364 0.000000 0.555664
C55   C     C_R   0.860364 0.000000 0.000000 0.555664
C56   C     C_R   0.860087 0.500000 0.500000 0.547462
C57   C     C_R   0.000000 0.139636 0.000000 0.555664
C58   C     C_R   0.639636 0.500000 0.500000 0.555664
C59   C     C_R   0.500000 0.360364 0.500000 0.555664
C60   C     C_R   0.360364 0.500000 0.500000 0.555664
C61   C     C_R   0.500000 0.639636 0.500000 0.555664
C62   C     C_R   0.049615 0.545164 0.717785 0.008889
C63   C     C_R   0.545164 0.950385 0.717785 0.008889
C64   C     C_R   0.950385 0.454836 0.717785 0.008889
C65   C     C_R   0.454836 0.049615 0.717785 0.008889
C66   C     C_R   0.049615 0.454836 0.282215 0.008889
C67   C     C_R   0.500000 0.139913 0.500000 0.547462
C68   C     C_R   0.545164 0.049615 0.282215 0.008889
C69   C     C_R   0.950385 0.545164 0.282215 0.008889
C70   C     C_R   0.454836 0.950385 0.282215 0.008889
C71   C     C_R   0.549615 0.045164 0.217785 0.008889
C72   C     C_R   0.045164 0.450385 0.217785 0.008889
C73   C     C_R   0.450385 0.954836 0.217785 0.008889
C74   C     C_R   0.954836 0.549615 0.217785 0.008889
C75   C     C_R   0.549615 0.954836 0.782215 0.008889
C76   C     C_R   0.045164 0.549615 0.782215 0.008889
C77   C     C_R   0.450385 0.045164 0.782215 0.008889
C78   C     C_R   0.139913 0.500000 0.500000 0.547462
C79   C     C_R   0.954836 0.450385 0.782215 0.008889
C80   C     C_R   1.000000 0.500000 0.685684 -0.019129
C81   C     C_R   0.500000 0.000000 0.685684 -0.019129
C82   C     C_R   0.000000 0.500000 0.314316 -0.019129
C83   C     C_R   0.500000 0.000000 0.314316 -0.019129
C84   C     C_R   0.500000 0.000000 0.185684 -0.019129
C85   C     C_R   0.000000 0.500000 0.185684 -0.019129
C86   C     C_R   0.500000 0.000000 0.814316 -0.019129
C87   C     C_R   0.000000 0.500000 0.814316 -0.019129
C88   C     C_1   1.000000 0.217211 0.000000 -0.048564
C89   C     C_1   1.000000 0.282528 0.000000 -0.055462
C90   C     C_1   0.217211 0.000000 0.000000 -0.048564
C91   C     C_1   0.000000 0.782789 0.000000 -0.048564
C92   C     C_1   0.782789 0.000000 0.000000 -0.048564
C93   C     C_1   0.500000 0.717211 0.500000 -0.048564
C94   C     C_1   0.717211 0.500000 0.500000 -0.048564
C95   C     C_1   0.500000 0.282789 0.500000 -0.048564
C96   C     C_1   0.282789 0.500000 0.500000 -0.048564
Cu1   Cu    Cu3+1 0.927460 0.500000 0.000000 0.935312
Cu2   Cu    Cu3+1 0.000000 0.000000 0.061780 0.956367
Cu3   Cu    Cu3+1 0.500000 0.500000 0.438220 0.956367
Cu4   Cu    Cu3+1 0.500000 0.500000 0.561780 0.956367
Cu5   Cu    Cu3+1 0.500000 0.072540 0.000000 0.935312
Cu6   Cu    Cu3+1 0.072540 0.500000 0.000000 0.935312
Cu7   Cu    Cu3+1 0.500000 0.927460 0.000000 0.935312
Cu8   Cu    Cu3+1 0.427460 0.000000 0.500000 0.935312
Cu9   Cu    Cu3+1 0.000000 0.572540 0.500000 0.935312
Cu10  Cu    Cu3+1 0.572540 0.000000 0.500000 0.935312
Cu11  Cu    Cu3+1 1.000000 0.427460 0.500000 0.935312
Cu12  Cu    Cu3+1 0.000000 0.000000 0.938220 0.956367
H1    H     H_    0.831722 0.312933 0.805437 0.119029
H2    H     H_    0.812934 0.668278 0.305437 0.119029
H3    H     H_    0.668278 0.187066 0.305437 0.119029
H4    H     H_    0.187066 0.331722 0.305437 0.119029
H5    H     H_    0.331722 0.187066 0.694563 0.119029
H6    H     H_    0.812934 0.331722 0.694563 0.119029
H7    H     H_    0.668278 0.812934 0.694563 0.119029
H8    H     H_    0.187067 0.668278 0.694563 0.119029
H9    H     H_    0.080277 0.614649 0.861178 0.141168
H10   H     H_    0.614649 0.919723 0.861178 0.141169
H11   H     H_    0.919723 0.385350 0.861178 0.141169
H12   H     H_    0.312933 0.168278 0.805437 0.119029
H13   H     H_    0.385350 0.080277 0.861178 0.141169
H14   H     H_    0.080277 0.385350 0.138822 0.141168
H15   H     H_    0.614649 0.080277 0.138822 0.141168
H16   H     H_    0.919723 0.614649 0.138822 0.141169
H17   H     H_    0.385350 0.919723 0.138822 0.141168
H18   H     H_    0.580277 0.114650 0.361178 0.141168
H19   H     H_    0.114650 0.419723 0.361178 0.141169
H20   H     H_    0.419723 0.885350 0.361178 0.141169
H21   H     H_    0.885351 0.580277 0.361178 0.141169
H22   H     H_    0.580277 0.885350 0.638822 0.141168
H23   H     H_    0.168278 0.687066 0.805437 0.119029
H24   H     H_    0.114649 0.580277 0.638822 0.141168
H25   H     H_    0.419723 0.114649 0.638822 0.141169
H26   H     H_    0.885350 0.419723 0.638822 0.141168
H27   H     H_    0.687066 0.831722 0.805437 0.119029
H28   H     H_    0.831722 0.687066 0.194563 0.119029
H29   H     H_    0.312933 0.831722 0.194563 0.119029
H30   H     H_    0.168278 0.312933 0.194563 0.119029
H31   H     H_    0.687067 0.168278 0.194563 0.119029
H32   H     H_    0.331722 0.812933 0.305437 0.119029
O1    O     O_R   0.938740 0.394190 0.000020 -0.507293
O2    O     O_R   0.894190 0.561260 0.500020 -0.507293
O3    O     O_R   0.561260 0.105810 0.500020 -0.507293
O4    O     O_R   0.105810 0.438740 0.500020 -0.507293
O5    O     O_R   0.438740 0.105810 0.499980 -0.507293
O6    O     O_R   0.894190 0.438740 0.499980 -0.507293
O7    O     O_R   0.561260 0.894190 0.499980 -0.507293
O8    O     O_R   0.105810 0.561260 0.499980 -0.507293
O9    O     O_R   0.938740 0.500000 0.909860 -0.512788
O10   O     O_R   0.500000 0.061260 0.909860 -0.512788
O11   O     O_R   0.061260 0.500000 0.909860 -0.512788
O12   O     O_R   0.394190 0.061260 0.000020 -0.507293
O13   O     O_R   0.500000 0.938740 0.909860 -0.512788
O14   O     O_R   0.938740 0.500000 0.090140 -0.512788
O15   O     O_R   0.500000 0.938740 0.090140 -0.512788
O16   O     O_R   0.061260 0.500000 0.090140 -0.512788
O17   O     O_R   0.500000 0.061260 0.090140 -0.512788
O18   O     O_R   0.438740 0.000000 0.409860 -0.512788
O19   O     O_R   1.000000 0.561260 0.409860 -0.512788
O20   O     O_R   0.561260 0.000000 0.409860 -0.512788
O21   O     O_R   0.000000 0.438740 0.409860 -0.512788
O22   O     O_R   0.438740 1.000000 0.590140 -0.512788
O23   O     O_R   0.061260 0.605810 0.000020 -0.507293
O24   O     O_R   1.000000 0.438740 0.590140 -0.512788
O25   O     O_R   0.561260 1.000000 0.590140 -0.512788
O26   O     O_R   1.000000 0.561260 0.590140 -0.512788
O27   O     O_R   0.105780 0.999970 0.947820 -0.504059
O28   O     O_R   0.999970 0.894220 0.947820 -0.504059
O29   O     O_R   0.894220 0.000030 0.947820 -0.504059
O30   O     O_R   0.000030 0.105780 0.947820 -0.504059
O31   O     O_R   0.105780 0.000030 0.052180 -0.504059
O32   O     O_R   0.999970 0.105780 0.052180 -0.504059
O33   O     O_R   0.894220 0.999970 0.052180 -0.504059
O34   O     O_R   0.605810 0.938740 0.000020 -0.507293
O35   O     O_R   0.000030 0.894220 0.052180 -0.504059
O36   O     O_R   0.605780 0.499970 0.447820 -0.504059
O37   O     O_R   0.499970 0.394220 0.447820 -0.504059
O38   O     O_R   0.394220 0.500030 0.447820 -0.504059
O39   O     O_R   0.500030 0.605780 0.447820 -0.504059
O40   O     O_R   0.605780 0.500030 0.552180 -0.504059
O41   O     O_R   0.499970 0.605780 0.552180 -0.504059
O42   O     O_R   0.394220 0.499970 0.552180 -0.504059
O43   O     O_R   0.500030 0.394220 0.552180 -0.504059
O44   O     O_R   0.938740 0.605810 0.999980 -0.507293
O45   O     O_R   0.394190 0.938740 0.999980 -0.507293
O46   O     O_R   0.061260 0.394190 0.999980 -0.507293
O47   O     O_R   0.605810 0.061260 0.999980 -0.507293
O48   O     O_R   0.438740 0.894190 0.500020 -0.507293

loop_
_geom_bond_atom_site_label_1
_geom_bond_atom_site_label_2
_ccdc_geom_bond_type
C48   H2    S    
C15   O21   A    
C3    C91   T    
Cu12  O30   S    
C12   O12   A    
C3    C23   S    
Cu7   O45   S    
C67   O3    A    
C79   C87   A    
C72   C85   A    
C33   C65   A    
Cu10  O3    S    
C1    O46   A    
C40   C46   A    
Cu9   Cu11  S    
C13   C84   S    
C9    O9    A    
Cu6   O46   S    
C63   C81   A    
C30   C48   A    
C29   C70   A    
C31   H22   S    
C46   H4    S    
C17   O26   A    
Cu8   O22   S    
C27   H18   S    
C61   C93   S    
C38   C52   A    
C60   O38   A    
C39   H12   S    
Cu5   O10   S    
C26   C73   A    
Cu2   Cu12  S    
Cu9   O26   S    
C10   O13   A    
C42   H28   S    
C25   C74   A    
C13   O17   A    
C2    C90   T    
Cu4   O43   S    
C55   O33   A    
C69   C82   A    
C19   C37   A    
C11   O14   A    
C39   C51   A    
Cu1   O1    S    
C27   C44   A    
C53   O27   A    
C13   O15   A    
Cu3   O36   S    
Cu11  O21   S    
C19   H10   S    
C66   C72   A    
Cu6   O23   S    
C6    C94   T    
C40   H30   S    
C47   H32   S    
C67   O5    A    
C18   C76   A    
C37   H27   S    
C15   O19   A    
C35   C64   A    
C27   C68   A    
Cu4   O41   S    
Cu4   O42   S    
C73   C84   A    
Cu1   Cu6   S    
C28   H19   S    
C78   O8    A    
Cu6   O11   S    
C57   O32   A    
Cu2   O32   S    
C57   O30   A    
Cu12  O28   S    
C2    C12   S    
Cu5   Cu7   S    
Cu12  O29   S    
C8    C78   S    
C24   C41   A    
C64   C80   A    
C62   C76   A    
C59   C95   S    
C14   C83   S    
C31   C49   A    
C35   H26   S    
C22   C72   A    
Cu7   O13   S    
C26   C43   A    
C22   H14   S    
C15   C82   S    
C23   O23   A    
Cu5   O17   S    
C60   O42   A    
Cu8   O48   S    
C4    C34   S    
C65   C77   A    
Cu10  O25   S    
C31   C63   A    
C59   O37   A    
Cu3   O38   S    
C36   H23   S    
Cu8   O18   S    
Cu9   O2    S    
Cu11  O6    S    
C16   O22   A    
Cu9   O8    S    
C5    C45   S    
Cu7   O34   S    
Cu10  O7    S    
C14   O20   A    
C26   H17   S    
C54   O35   A    
C28   C66   A    
C44   H3    S    
Cu3   O39   S    
C55   C92   S    
C34   O34   A    
C17   O24   A    
C78   O4    A    
C8    C96   T    
C66   C82   A    
C20   C38   A    
C75   C86   A    
C65   C81   A    
Cu3   Cu4   S    
C18   H9    S    
C16   O25   A    
C22   C40   A    
C70   C73   A    
C69   C74   A    
C42   C48   A    
Cu1   O14   S    
C88   C89   T    
C38   H1    S    
C59   O43   A    
C70   C83   A    
C76   C87   A    
C32   C50   A    
C37   C49   A    
C24   H15   S    
C11   O16   A    
Cu2   O31   S    
C60   C96   S    
Cu7   O15   S    
C49   H7    S    
Cu12  O27   S    
C29   C47   A    
C77   C86   A    
C61   O39   A    
C64   C79   A    
Cu4   O40   S    
Cu6   O16   S    
C32   H24   S    
C30   C69   A    
C36   C50   A    
Cu1   O44   S    
C71   C84   A    
C62   C80   A    
Cu2   O33   S    
C9    O11   A    
C1    C89   S    
C20   C79   A    
C45   O7    A    
C68   C83   A    
Cu8   O5    S    
C51   H5    S    
C58   O36   A    
C6    C56   S    
C43   C47   A    
C14   O18   A    
C25   C42   A    
C5    C93   T    
C45   O48   A    
Cu3   O37   S    
Cu8   Cu10  S    
C52   H6    S    
C33   C51   A    
C30   H21   S    
C7    C95   T    
Cu5   O12   S    
C61   O41   A    
C57   C88   S    
C28   C46   A    
C19   C75   A    
C58   C94   S    
C32   C62   A    
C23   O44   A    
C10   O10   A    
Cu2   O35   S    
C35   C52   A    
C10   C86   S    
Cu9   O19   S    
C63   C75   A    
C11   C85   S    
C68   C71   A    
Cu10  O20   S    
C12   O45   A    
C16   C81   S    
C41   C44   A    
C43   H29   S    
C50   H8    S    
C17   C80   S    
C74   C85   A    
C56   O6    A    
C34   O47   A    
C25   H16   S    
C41   H31   S    
C1    O1    A    
C53   O31   A    
C7    C67   S    
C56   O2    A    
C54   O28   A    
C33   H25   S    
C54   C91   S    
Cu11  O24   S    
C29   H20   S    
C21   C77   A    
C53   C90   S    
Cu1   O9    S    
C21   H13   S    
C58   O40   A    
C21   C39   A    
Cu11  O4    S    
Cu5   O47   S    
C18   C36   A    
C55   O29   A    
C20   H11   S    
C9    C87   S    
C24   C71   A    
C4    C92   T    
