data_mof_unit_pretest_1076.cif
_audit_creation_date              2012-12-11T15:49:51-0500
_audit_creation_method            fapswitch 2.2
_symmetry_space_group_name_H-M    P1
_symmetry_Int_Tables_number       1
_space_group_crystal_system       triclinic
_cell_length_a                    8.267078
_cell_length_b                    19.096361
_cell_length_c                    26.935491
_cell_angle_alpha                 95.675111
_cell_angle_beta                  92.247056
_cell_angle_gamma                 85.454671
_cell_volume                      4216.07514911

loop_
_atom_site_label
_atom_site_type_symbol
_atom_type_description
_atom_site_fract_x
_atom_site_fract_y
_atom_site_fract_z
_atom_type_partial_charge
Ba1   Ba    Ba6+2 0.854000 0.466860 0.523710 1.662571
Ba2   Ba    Ba6+2 0.335820 0.533080 0.476290 1.661961
C1    C     C_3   0.765425 0.381964 0.763367 -0.272467
C2    C     C_R   0.076402 0.556668 0.192209 0.596844
C3    C     C_2   0.780870 0.555252 0.272078 -0.098089
C4    C     C_3   0.133763 0.276941 0.656990 0.497207
C5    C     C_3   0.752419 0.574074 0.327311 -0.105759
C6    C     C_1   0.984356 0.489739 0.343680 0.036135
C7    C     C_2   0.024894 0.482757 0.295948 -0.089984
C8    C     C_2   0.916777 0.515743 0.257220 0.230295
C9    C     C_R   0.045817 0.511458 0.104222 -0.114231
C10   C     C_R   0.938021 0.463935 0.118734 -0.029374
C11   C     C_R   0.871399 0.416252 0.082122 -0.058693
C12   C     C_3   0.636298 0.346182 0.728899 0.457243
C13   C     C_R   0.114467 0.559240 0.141228 -0.046399
C14   C     C_2   0.856329 0.529297 0.360895 -0.270794
C15   C     C_2   0.348577 0.482677 0.641635 -0.257356
C16   C     C_3   0.068592 0.249217 0.703087 -0.334372
C17   C     C_R   0.064360 0.458554 0.965093 0.018783
C18   C     C_R   0.216265 0.563854 0.985990 0.028266
C19   C     C_R   0.158519 0.511406 0.950007 0.050106
C20   C     C_R   0.018829 0.404898 0.928280 -0.102357
C21   C     C_R   0.059001 0.404695 0.878437 -0.074680
C22   C     C_R   0.145477 0.458240 0.862661 -0.027786
C23   C     C_3   0.508759 0.647080 0.627003 0.293247
C24   C     C_R   0.195285 0.511839 0.898391 -0.078891
C25   C     C_R   0.282392 0.565723 0.882531 -0.036833
C26   C     C_R   0.316269 0.565954 0.831319 0.590718
C27   C     C_R   0.184924 0.458756 0.811963 0.571649
C28   C     C_3   0.190909 0.318592 0.417701 0.316096
C29   C     C_2   0.460946 0.504527 0.729235 -0.156717
C30   C     C_3   0.499537 0.494642 0.673828 -0.085666
C31   C     C_1   0.209492 0.513917 0.656888 0.050639
C32   C     C_2   0.172018 0.516201 0.704582 -0.095733
C33   C     C_2   0.304986 0.512054 0.744003 0.236849
C34   C     C_3   0.480864 0.677856 0.680535 -0.364311
C35   C     C_R   0.019928 0.460705 0.016174 0.027568
C36   C     C_R   0.084282 0.511135 0.052608 0.046718
C37   C     C_R   0.186593 0.561192 0.037849 -0.006446
C38   C     C_R   0.911329 0.414451 0.032201 -0.101436
C39   C     C_R   0.219992 0.607665 0.126084 0.218530
C40   C     C_3   0.203396 0.239093 0.404494 -0.381852
C41   C     C_R   0.300400 0.617900 0.968490 -0.102495
C42   C     C_R   0.332567 0.618674 0.918127 -0.064816
C43   C     C_R   0.256549 0.607180 0.075705 -0.129747
C44   C     C_R   0.404620 0.298327 0.523169 -0.257278
C45   C     C_3   0.009619 0.698982 0.340178 0.405895
C46   C     C_R   0.541168 0.275874 0.495971 0.077840
C47   C     C_R   0.592668 0.203836 0.489159 -0.113538
C48   C     C_R   0.502165 0.153451 0.508149 -0.017085
C49   C     C_R   0.356017 0.176957 0.531929 -0.128270
C50   C     C_R   0.308409 0.249287 0.539270 0.040117
C51   C     C_R   0.537894 0.033990 0.540496 -0.070565
C52   C     C_3   0.003680 0.680544 0.579876 0.308630
C53   C     C_R   0.586761 0.961890 0.534848 -0.079400
C54   C     C_R   0.654348 0.930244 0.490167 0.059144
C55   C     C_R   0.673829 0.973026 0.451520 -0.076200
C56   C     C_3   0.997183 0.730404 0.290405 -0.331547
C57   C     C_R   0.625187 0.045359 0.457233 -0.078545
C58   C     C_R   0.555851 0.076700 0.501755 0.064037
C59   C     C_R   0.847750 0.826525 0.460317 -0.137746
C60   C     C_R   0.894437 0.753919 0.456857 0.006691
C61   C     C_R   0.655904 0.732770 0.500292 0.058548
C62   C     C_R   0.608029 0.805015 0.504337 -0.107001
C63   C     C_R   0.702633 0.852923 0.483995 -0.007524
C64   C     C_3   0.983678 0.760077 0.592766 -0.391619
C65   C     C_R   0.794485 0.707442 0.474798 -0.275324
C66   C     C_3   0.674029 0.381888 0.376218 0.292575
C67   C     C_3   0.530390 0.714673 0.331999 0.356013
C68   C     C_3   0.681276 0.364369 0.319989 -0.353774
C69   C     C_3   0.519842 0.266165 0.782309 -0.297806
C70   C     C_3   0.187964 0.725882 0.165690 -0.193903
C71   C     C_3   0.369964 0.186911 0.654062 -0.256392
C72   C     C_3   0.442149 0.782631 0.316505 -0.338220
C73   C     C_R   0.896994 0.465511 0.169470 0.593601
H1    H     H_    0.281807 0.225083 0.371894 0.122089
H2    H     H_    0.885947 0.352604 0.758630 0.150882
H3    H     H_    0.779609 0.322460 0.311046 0.123909
H4    H     H_    0.705646 0.411925 0.301839 0.090068
H5    H     H_    0.563500 0.345804 0.304918 0.134197
H6    H     H_    0.515506 0.374693 0.734613 0.015546
H7    H     H_    0.733062 0.382703 0.803339 0.056409
H8    H     H_    0.390759 0.630872 0.610452 0.029733
H9    H     H_    0.598084 0.600515 0.626902 0.033832
H10   H     H_    0.402270 0.727835 0.680836 0.131636
H11   H     H_    0.419293 0.640597 0.700991 0.093712
H12   H     H_    0.256684 0.211797 0.436297 0.058648
H13   H     H_    0.598720 0.688613 0.699866 0.125222
H14   H     H_    0.778116 0.437362 0.756297 0.096020
H15   H     H_    0.095188 0.191322 0.702924 0.102846
H16   H     H_    0.053944 0.642459 0.333834 0.076975
H17   H     H_    0.885917 0.703905 0.355554 -0.134126
H18   H     H_    0.118562 0.726790 0.273838 0.166288
H19   H     H_    0.950440 0.786669 0.295818 0.082827
H20   H     H_    0.635566 0.702300 0.307274 -0.040241
H21   H     H_    0.528488 0.824582 0.318389 0.051352
H22   H     H_    0.341924 0.800981 0.341938 0.156252
H23   H     H_    0.080740 0.220640 0.395247 0.128904
H24   H     H_    0.107614 0.335371 0.660508 0.051435
H25   H     H_    0.393110 0.774003 0.277550 0.109095
H26   H     H_    0.137070 0.453154 0.284552 0.099433
H27   H     H_    0.786967 0.379639 0.091964 0.119239
H28   H     H_    0.558102 0.506957 0.757183 0.081053
H29   H     H_    0.021279 0.362032 0.852076 0.106398
H30   H     H_    0.954856 0.360921 0.936935 0.066346
H31   H     H_    0.851007 0.376985 0.006739 0.065546
H32   H     H_    0.703946 0.581665 0.244942 0.075667
H33   H     H_    0.339946 0.661959 0.992593 0.066413
H34   H     H_    0.088665 0.668861 0.548787 0.069222
H35   H     H_    0.397609 0.661435 0.907136 0.120067
H36   H     H_    0.046841 0.525163 0.715612 0.105648
H37   H     H_    0.342407 0.644114 0.067574 0.063792
H38   H     H_    0.355606 0.452059 0.605494 0.070565
H39   H     H_    0.499490 0.823698 0.524342 0.074770
H40   H     H_    0.573348 0.931068 0.565873 0.061517
H41   H     H_    0.487808 0.056563 0.575583 0.055267
H42   H     H_    0.701315 0.187382 0.468601 0.084259
H43   H     H_    0.723778 0.950284 0.416449 0.061066
H44   H     H_    0.121748 0.275824 0.737645 0.101224
H45   H     H_    0.893431 0.773256 0.622383 0.134017
H46   H     H_    0.638885 0.076442 0.426368 0.059697
H47   H     H_    0.927034 0.862193 0.446499 0.071022
H48   H     H_    0.831828 0.651652 0.472735 0.053078
H49   H     H_    0.364351 0.353847 0.527454 0.052757
H50   H     H_    0.934929 0.258740 0.702757 0.142869
H51   H     H_    0.114184 0.331270 0.450774 0.066291
H52   H     H_    0.629318 0.235555 0.714077 0.219611
H53   H     H_    0.535690 0.210963 0.792343 0.118590
H54   H     H_    0.392284 0.277382 0.769373 0.131686
H55   H     H_    0.545643 0.302025 0.816210 0.121764
H56   H     H_    0.941412 0.786883 0.559531 0.060610
H57   H     H_    0.884689 0.660919 0.568247 0.007137
H58   H     H_    0.912937 0.701165 0.264420 0.076315
H59   H     H_    0.573684 0.724280 0.371723 -0.005090
H60   H     H_    0.406245 0.666755 0.155093 0.184699
H61   H     H_    0.242498 0.762764 0.194841 0.094999
H62   H     H_    0.063280 0.717565 0.176643 0.117748
H63   H     H_    0.181517 0.750213 0.129808 0.079242
H64   H     H_    0.376098 0.295244 0.675117 0.180375
H65   H     H_    0.382263 0.172097 0.692941 0.099648
H66   H     H_    0.491379 0.179686 0.637259 0.121351
H67   H     H_    0.101882 0.779936 0.606235 0.121289
H68   H     H_    0.288038 0.151281 0.632205 0.126506
H69   H     H_    0.838580 0.539661 0.400727 0.078276
H70   H     H_    0.276776 0.139227 0.543078 0.071176
H71   H     H_    0.313798 0.336205 0.426284 -0.003890
H72   H     H_    0.793554 0.397900 0.390837 0.005427
H73   H     H_    0.580667 0.426185 0.383948 0.085746
N1    N     N_R   0.965196 0.511842 0.205428 -0.432821
N2    N     N_R   0.267338 0.512797 0.796595 -0.422453
N3    N     N_2   0.629360 0.274976 0.743110 -0.434518
N4    N     N_2   0.286353 0.659610 0.160916 -0.372645
N5    N     N_2   0.308123 0.260108 0.653785 -0.456485
O1    O     O_2   0.913240 0.537010 0.617740 -0.457707
O2    O     O_2   0.233440 0.749209 0.463684 -0.478759
O3    O     O_3   0.120311 0.735167 0.371931 -0.588475
O4    O     O_3   0.145240 0.536960 0.557560 -0.490386
O5    O     O_3   0.557280 0.416300 0.475860 -0.496282
O6    O     O_2   0.376710 0.670070 0.522470 -0.459309
O7    O     O_3   0.570490 0.698651 0.601133 -0.645356
O8    O     O_2   0.441035 0.521070 0.323096 -0.464582
O9    O     O_3   0.426252 0.659258 0.325994 -0.540613
O10   O     O_2   0.800923 0.425416 0.181657 -0.589114
O11   O     O_2   0.147846 0.410429 0.781547 -0.639459
O12   O     O_3   0.634888 0.321982 0.397889 -0.637891
O13   O     O_2   0.142589 0.594142 0.224974 -0.567930
O14   O     O_2   0.388565 0.613688 0.817651 -0.596743
O15   O     O_3   0.669960 0.410470 0.588880 -0.442083
O16   O     O_2   0.836217 0.449510 0.670432 -0.484007
O17   O     O_3   0.064116 0.649617 0.622386 -0.637556
O18   O     O_3   0.672812 0.341818 0.677415 -0.599721
O19   O     O_2   0.812980 0.329910 0.477500 -0.448148
O20   O     O_3   0.078660 0.374870 0.564770 -0.485694
O21   O     O_2   0.987091 0.250252 0.521255 -0.476595
O22   O     O_3   0.049993 0.246953 0.614782 -0.576090
O23   O     O_2   0.276450 0.462960 0.382230 -0.456250
O24   O     O_3   0.044470 0.462980 0.442430 -0.496306
O25   O     O_3   0.519740 0.589470 0.411120 -0.466918
O26   O     O_3   0.122271 0.350506 0.376561 -0.633677
O27   O     O_3   0.632420 0.583650 0.524140 -0.478571
O28   O     O_3   0.111040 0.625070 0.435230 -0.481734
P1    P     P_3+3 0.082480 0.557670 0.610090 0.990116
P2    P     P_3+3 0.635220 0.340300 0.462910 0.988329
P3    P     P_3+3 0.107234 0.281652 0.560909 0.984071
P4    P     P_3+3 0.107220 0.442270 0.389900 0.987683
P5    P     P_3+3 0.091119 0.716790 0.432948 0.972803
P6    P     P_3+3 0.666411 0.425429 0.654601 0.971069
P7    P     P_3+3 0.561441 0.672416 0.537104 0.952138
P8    P     P_3+3 0.535000 0.584052 0.346012 0.999224

loop_
_geom_bond_atom_site_label_1
_geom_bond_atom_site_label_2
_ccdc_geom_bond_type
C57   H46   S    
C53   C54   A    
C28   H51   S    
C26   N2    Am   
C67   H59   S    
C68   H3    S    
C45   H17   S    
C52   O17   S    
C19   C24   A    
Ba1   P2    S    
C43   H37   S    
C15   H38   S    
O23   P4    D    
C39   N4    S    
C71   H66   S    
C34   H13   S    
C2    N1    Am   
Ba1   O20   S    
C24   C25   A    
Ba2   O27   S    
C60   C65   A    
Ba1   O5    S    
C14   H69   S    
C56   H18   S    
C22   C24   A    
C32   C33   S    
C35   C38   A    
C40   H23   S    
C16   H50   S    
C3    H32   S    
C36   C37   A    
Ba1   O27   S    
C55   C57   A    
C4    O22   S    
C49   H70   S    
H60   N4    S    
C44   C50   A    
O24   P4    S    
C54   C55   A    
C73   O10   D    
Ba1   Ba2   S    
C22   C27   A    
C11   C38   A    
O27   P7    S    
C26   O14   D    
Ba2   O23   S    
C27   N2    Am   
C9    C13   A    
C25   C42   A    
C47   H42   S    
C29   C30   S    
O20   P3    S    
Ba2   O6    S    
C70   N4    S    
C12   N3    S    
C23   H9    S    
C21   C22   A    
C33   N2    S    
C17   C35   A    
C7    C8    S    
C66   H73   S    
C51   H41   S    
C37   C43   A    
H52   N3    S    
C66   O12   S    
C70   H63   S    
C57   C58   A    
C6    C14   D    
O15   P6    S    
C64   H45   S    
O17   P1    S    
C32   H36   S    
C27   O11   D    
C44   H49   S    
C59   C60   A    
C15   C31   D    
C1    H7    S    
C51   C58   A    
C28   H71   S    
C72   H22   S    
C44   C46   A    
C51   C53   A    
C56   H58   S    
C4    C16   S    
C61   C65   A    
C62   H39   S    
C68   H5    S    
C49   C50   A    
O12   P2    S    
C72   H21   S    
C17   C20   A    
C67   O9    S    
O16   P6    D    
O8    P8    D    
O21   P3    D    
C3    C5    S    
O25   P8    S    
C6    C7    D    
C72   H25   S    
Ba1   O15   S    
C34   H11   S    
C52   H34   S    
C59   H47   S    
C16   H44   S    
Ba2   O28   S    
C16   H15   S    
O6    P7    D    
C9    C36   A    
C41   C42   A    
C35   C36   A    
C69   H54   S    
C21   H29   S    
Ba2   O5    S    
O28   P5    S    
C23   O7    S    
C31   C32   D    
C67   C72   S    
C48   C49   A    
C18   C19   A    
C66   H72   S    
C13   C39   A    
C1    C12   S    
C64   H67   S    
C7    H26   S    
C70   H62   S    
Ba2   O24   S    
C61   P7    S    
C34   H10   S    
C29   C33   D    
C69   H53   S    
C71   H68   S    
O4    P1    S    
O7    P7    S    
C1    H2    S    
C25   C26   A    
C18   C41   A    
C69   N3    S    
C38   H31   S    
C64   H56   S    
O5    P2    S    
C18   C37   A    
C46   C47   A    
C39   C43   A    
C30   P6    S    
C17   C19   A    
C68   H4    S    
C45   H16   S    
C5    C14   S    
C50   P3    S    
C12   O18   S    
C67   H20   S    
O2    P5    D    
C65   H48   S    
C46   P2    S    
Ba1   P1    S    
C52   C64   S    
C71   H65   S    
O3    P5    S    
C6    P4    S    
C20   H30   S    
C52   H57   S    
Ba1   O19   S    
C40   H1    S    
C60   P5    S    
C1    H14   S    
C48   C58   S    
C4    H24   S    
C2    C13   A    
Ba1   O4    S    
C56   H19   S    
Ba2   P4    S    
C3    C8    D    
C8    N1    S    
C62   C63   A    
C69   H55   S    
O19   P2    D    
C28   O26   S    
C53   H40   S    
C73   N1    Am   
Ba2   O4    S    
O1    P1    D    
C2    O13   D    
O26   P4    S    
C28   C40   S    
C41   H33   S    
Ba1   O1    S    
C4    N5    S    
C70   H61   S    
C23   C34   S    
C61   C62   A    
C59   C63   A    
C10   C11   A    
C55   H43   S    
C66   C68   S    
C47   C48   A    
C45   O3    S    
C10   C73   A    
C71   N5    S    
C31   P1    S    
C23   H8    S    
C15   C30   S    
H64   N5    S    
C20   C21   A    
C5    P8    S    
C40   H12   S    
Ba2   O25   S    
C12   H6    S    
C11   H27   S    
Ba1   O24   S    
O18   P6    S    
O9    P8    S    
C54   C63   S    
C9    C10   A    
C29   H28   S    
O22   P3    S    
C45   C56   S    
C42   H35   S    
