data_mof_unit_pretest_1569.cif
_audit_creation_date              2012-12-11T14:37:52-0500
_audit_creation_method            fapswitch 2.2
_symmetry_space_group_name_H-M    P1
_symmetry_Int_Tables_number       1
_space_group_crystal_system       triclinic
_cell_length_a                    14.483851
_cell_length_b                    15.772598
_cell_length_c                    6.966497
_cell_angle_alpha                 90.255752
_cell_angle_beta                  80.509662
_cell_angle_gamma                 90.096189
_cell_volume                      1569.68372226

loop_
_atom_site_label
_atom_site_type_symbol
_atom_type_description
_atom_site_fract_x
_atom_site_fract_y
_atom_site_fract_z
_atom_type_partial_charge
O1    O     O_R   0.337080 0.165770 0.524980 -0.528409
O2    O     O_R   0.662920 0.834230 0.475020 -0.527015
O3    O     O_R   0.662920 0.665770 0.475020 -0.519930
O4    O     O_R   0.337080 0.334230 0.524980 -0.530137
O5    O     O_R   0.348340 0.341430 0.191390 -0.544605
O6    O     O_R   0.651660 0.658570 0.808610 -0.542649
O7    O     O_R   0.651660 0.841430 0.808610 -0.555705
O8    O     O_R   0.348340 0.158570 0.191390 -0.552060
O9    O     O_R   0.165780 0.339950 0.082750 -0.541257
O10   O     O_R   0.834220 0.660050 0.917250 -0.541833
O11   O     O_R   0.834220 0.839950 0.917250 -0.540365
O12   O     O_R   0.165780 0.160050 0.082750 -0.540881
C1    C     C_R   0.369884 0.364857 0.356041 0.628072
C2    C     C_R   0.629664 0.635367 0.644092 0.593162
C3    C     C_R   0.629874 0.864530 0.644612 0.608438
C4    C     C_R   0.370178 0.135561 0.355360 0.612653
O13   O     O_3   0.191540 0.250000 0.407620 -0.365732
O14   O     O_3   0.808460 0.750000 0.592380 -0.365850
V1    V     V_3+5 0.262540 0.250000 0.108780 1.401434
V2    V     V_3+5 0.737460 0.750000 0.891220 1.398986
O15   O     O_R   0.154530 0.164290 0.756910 -0.538354
O16   O     O_R   0.845470 0.835710 0.243090 -0.539875
O17   O     O_R   0.845470 0.664290 0.243090 -0.537493
O18   O     O_R   0.154530 0.335710 0.756910 -0.538013
C5    C     C_R   0.131982 0.133523 0.932000 0.679419
C6    C     C_R   0.867933 0.866540 0.068057 0.679134
C7    C     C_R   0.867820 0.633328 0.067451 0.685288
C8    C     C_R   0.132795 0.367066 0.932363 0.676135
V3    V     V_3+5 0.240320 0.250000 0.616280 1.399503
V4    V     V_3+5 0.759680 0.750000 0.383720 1.408786
O19   O     O_3   0.311330 0.250000 0.867310 -0.370421
O20   O     O_3   0.688670 0.750000 0.132690 -0.370206
C9    C     C_3   0.039984 0.488691 0.159367 -0.106088
C10   C     C_3   0.961663 0.512152 0.840813 -0.104487
C11   C     C_3   0.917607 0.024986 0.955240 -0.142439
C12   C     C_3   0.082233 0.975129 0.044934 -0.134621
C13   C     C_3   0.043749 0.572165 0.041805 -0.151905
C14   C     C_3   0.957944 0.428743 0.958520 -0.143098
C15   C     C_3   0.968550 0.067606 0.109299 -0.139961
C16   C     C_3   0.031286 0.932512 0.890872 -0.135824
H1    H     H_    0.078938 0.631538 0.076550 0.098730
H2    H     H_    0.924443 0.368373 0.925130 0.099713
H3    H     H_    0.942826 0.123770 0.198884 0.102194
H4    H     H_    0.056950 0.876322 0.801326 0.101872
H5    H     H_    0.072519 0.478878 0.291161 0.109062
H6    H     H_    0.929713 0.521987 0.708324 0.107033
H7    H     H_    0.849186 0.045227 0.918874 0.117642
H8    H     H_    0.150705 0.954936 0.081214 0.106595
C17   C     C_3   0.938756 0.562676 0.033055 -0.004456
C18   C     C_3   0.062743 0.438244 0.967069 -0.007595
C19   C     C_3   0.061283 0.062732 0.965128 -0.004474
C20   C     C_3   0.938557 0.937384 0.035027 -0.008517
C21   C     C_3   0.934235 0.479961 0.150808 -0.138639
C22   C     C_3   0.067372 0.520903 0.849453 -0.149077
C23   C     C_3   0.011143 0.020901 0.810743 -0.121636
C24   C     C_3   0.988689 0.979215 0.189428 -0.124616
C25   C     C_2   0.606152 0.484549 0.079115 0.244699
C26   C     C_2   0.432484 0.563041 0.483987 0.160806
C27   C     C_2   0.444212 0.003088 0.699841 0.181930
C28   C     C_2   0.569277 0.999127 0.197631 0.202082
H9    H     H_    0.879450 0.463554 0.276204 0.099423
H10   H     H_    0.121726 0.537009 0.723224 0.106911
H11   H     H_    0.020615 0.038440 0.654584 0.105978
H12   H     H_    0.979177 0.961682 0.345593 0.106280
C29   C     C_2   0.559916 0.493119 0.262369 0.147785
C30   C     C_2   0.478380 0.552802 0.300804 0.159540
C31   C     C_2   0.471188 0.975934 0.515527 0.140771
C32   C     C_2   0.547856 0.022227 0.385988 0.150186
N1    N     N_2   0.350577 0.613566 0.529537 -0.493615
H13   H     H_    0.303209 0.607572 0.434768 0.274780
C33   C     C_3   0.310091 0.614370 0.732923 -0.581314
H14   H     H_    0.290021 0.549117 0.783415 0.191017
H15   H     H_    0.246816 0.655212 0.755634 0.195460
H16   H     H_    0.360901 0.641184 0.819607 0.218064
N2    N     N_2   0.687473 0.433642 0.030095 -0.505099
H17   H     H_    0.734810 0.437244 0.125261 0.276378
C34   C     C_3   0.727670 0.435405 0.826718 -0.588211
H18   H     H_    0.753860 0.499980 0.784230 0.199701
H19   H     H_    0.674700 0.415726 0.737711 0.216563
H20   H     H_    0.786355 0.389703 0.797670 0.193492
N3    N     N_2   0.634525 0.043744 0.059331 -0.504392
H21   H     H_    0.658856 0.006477 0.940115 0.241836
C35   C     C_3   0.602560 0.125590 0.003956 -0.513674
H22   H     H_    0.538208 0.118231 0.937994 0.175881
H23   H     H_    0.657891 0.155371 0.895934 0.187225
H24   H     H_    0.587800 0.168698 0.131535 0.224832
N4    N     N_2   0.374069 0.962299 0.835107 -0.494574
H25   H     H_    0.347974 0.002008 0.948879 0.245000
C36   C     C_3   0.399416 0.880087 0.901517 -0.539442
H26   H     H_    0.459260 0.886283 0.981766 0.177647
H27   H     H_    0.418229 0.835287 0.778236 0.232421
H28   H     H_    0.338725 0.852841 0.000011 0.182061
N5    N     N_2   0.447113 0.596700 0.144013 -0.538239
H29   H     H_    0.465138 0.570413 0.007287 0.233230
C37   C     C_3   0.451572 0.688610 0.148612 -0.480931
H30   H     H_    0.494274 0.712624 0.012783 0.180588
H31   H     H_    0.483055 0.712448 0.273759 0.214648
H32   H     H_    0.379796 0.714646 0.159594 0.184329
N6    N     N_2   0.590243 0.447974 0.418824 -0.548872
H33   H     H_    0.567540 0.471275 0.556809 0.225681
C38   C     C_3   0.591930 0.355992 0.407881 -0.545593
H34   H     H_    0.543213 0.328956 0.532598 0.181174
H35   H     H_    0.663701 0.333259 0.415429 0.208353
H36   H     H_    0.570963 0.331747 0.271286 0.203624
N7    N     N_2   0.593632 0.093624 0.456543 -0.520080
H37   H     H_    0.555604 0.125047 0.573396 0.235863
C39   C     C_3   0.690274 0.080267 0.477989 -0.508171
H38   H     H_    0.720787 0.140963 0.519314 0.180234
H39   H     H_    0.732587 0.057951 0.339593 0.227463
H40   H     H_    0.694576 0.033027 0.593530 0.156535
N8    N     N_2   0.427883 0.902931 0.445914 -0.509014
H41   H     H_    0.469025 0.870277 0.335196 0.238313
C40   C     C_3   0.333039 0.915078 0.410868 -0.522384
H42   H     H_    0.304345 0.853572 0.369518 0.187395
H43   H     H_    0.332152 0.960863 0.290851 0.161619
H44   H     H_    0.287000 0.938763 0.543358 0.230176

loop_
_geom_bond_atom_site_label_1
_geom_bond_atom_site_label_2
_ccdc_geom_bond_type
O10   C7    A    
C15   C19   S    
N4    H25   S    
N5    H29   S    
C9    H5    S    
C37   H30   S    
V1    O19   S    
N3    H21   S    
C37   H32   S    
C19   C23   S    
C34   H18   S    
N7    C39   S    
C18   C22   S    
C35   H22   S    
C14   H2    S    
O13   V3    S    
O4    C1    A    
N1    C33   S    
O18   V3    S    
C27   C31   D    
C21   H9    S    
C26   C30   D    
N8    H41   S    
O10   V2    S    
C23   H11   S    
C39   H38   S    
C24   H12   S    
C10   H6    S    
O17   C7    A    
C36   H27   S    
O17   V4    S    
O5    C1    A    
O4    V3    S    
C38   H35   S    
C40   H44   S    
O7    C3    A    
C11   H7    S    
O8    C4    A    
C39   H39   S    
C8    C18   S    
N3    C35   S    
O9    V1    S    
C34   H19   S    
C9    C21   S    
O11   V2    S    
O8    V1    S    
C14   C18   S    
C11   C23   S    
C31   C32   S    
C38   H34   S    
C12   C16   S    
C29   N6    S    
C33   H15   S    
C15   H3    S    
C22   H10   S    
O11   C6    A    
C9    C18   S    
C16   C20   S    
O15   V3    S    
O7    V2    S    
C9    C13   S    
O3    V4    S    
C11   C15   S    
N2    H17   S    
C5    C19   S    
C12   C24   S    
C6    C20   S    
O6    C2    A    
C13   C17   S    
C28   N3    S    
C15   C24   S    
C16   C23   S    
O1    V3    S    
N8    C40   S    
O1    C4    A    
C36   H28   S    
O2    C3    A    
N2    C34   S    
C12   C19   S    
C30   N5    S    
O14   V4    S    
C13   C22   S    
C31   N8    S    
C35   H23   S    
C10   C22   S    
C38   H36   S    
N4    C36   S    
C39   H40   S    
C32   N7    S    
C40   H42   S    
V2    O20   S    
C34   H20   S    
O15   C5    A    
C10   C17   S    
O16   V4    S    
N6    C38   S    
C10   C14   S    
O18   C8    A    
C25   C29   D    
C33   H16   S    
C37   H31   S    
C26   N1    S    
O5    V1    S    
O3    C2    A    
O6    V2    S    
N7    H37   S    
N6    H33   S    
O12   C5    A    
O2    V4    S    
C25   N2    S    
C33   H14   S    
V3    O19   S    
V4    O20   S    
C14   C21   S    
C17   C21   S    
O12   V1    S    
O13   V1    S    
C12   H8    S    
O14   V2    S    
C13   H1    S    
N1    H13   S    
C27   N4    S    
C7    C17   S    
C16   H4    S    
C35   H24   S    
C28   C32   D    
N5    C37   S    
C29   C30   S    
O16   C6    A    
C11   C20   S    
C36   H26   S    
C20   C24   S    
O9    C8    A    
C40   H43   S    
