data_mof_unit_pretest_837.cif
_audit_creation_date              2012-12-10T18:01:19-0500
_audit_creation_method            fapswitch 2.2
_symmetry_space_group_name_H-M    P1
_symmetry_Int_Tables_number       1
_space_group_crystal_system       triclinic
_cell_length_a                    9.511312
_cell_length_b                    10.825158
_cell_length_c                    17.269554
_cell_angle_alpha                 90.148582
_cell_angle_beta                  85.12176
_cell_angle_gamma                 90.001089
_cell_volume                      1771.65154754

loop_
_atom_site_label
_atom_site_type_symbol
_atom_type_description
_atom_site_fract_x
_atom_site_fract_y
_atom_site_fract_z
_atom_type_partial_charge
C1    C     C_R   0.500031 0.737939 0.500047 0.792361
C2    C     C_R   0.499970 0.262061 0.499943 0.790772
C3    C     C_R   0.627653 0.936152 0.500862 -0.178067
C4    C     C_R   0.372351 0.063858 0.499094 -0.175559
C5    C     C_R   0.627647 0.063899 0.500783 -0.176484
C6    C     C_R   0.372355 0.936110 0.499180 -0.178073
C7    C     C_R   0.499992 0.128230 0.499922 -0.019731
C8    C     C_R   0.500010 0.871777 0.500047 -0.021330
C9    C     C_R   0.917782 0.572530 0.550914 -0.012281
C10   C     C_R   0.082229 0.427489 0.449070 -0.009851
C11   C     C_R   0.066660 0.572442 0.550924 -0.016274
C12   C     C_R   0.933346 0.427569 0.449068 -0.017223
C13   C     C_R   0.480346 0.499043 0.650081 0.818575
C14   C     C_R   0.519558 0.496780 0.349861 0.819892
C15   C     C_R   0.464838 0.488184 0.734526 -0.074241
C16   C     C_R   0.533623 0.479697 0.265557 -0.073180
C17   C     C_R   0.562274 0.419621 0.772052 -0.257916
C18   C     C_R   0.424242 0.424375 0.229265 -0.266385
C19   C     C_R   0.541867 0.397717 0.851956 -0.004787
C20   C     C_R   0.438521 0.399244 0.149589 -0.008134
C21   C     C_R   0.429168 0.459239 0.896972 -0.033925
C22   C     C_R   0.559616 0.444692 0.103698 -0.029054
C23   C     C_R   0.319986 0.512230 0.856119 -0.018468
C24   C     C_R   0.679504 0.478012 0.143263 -0.048640
C25   C     C_R   0.342028 0.530189 0.776053 -0.235727
C26   C     C_R   0.662852 0.500978 0.223115 -0.245422
C27   C     C_2   0.433323 0.480279 0.983423 0.368872
C28   C     C_2   0.556392 0.472336 0.018075 0.357361
Cu1   Cu    Cu3+1 0.359340 0.499980 0.500000 0.952962
Cu2   Cu    Cu3+1 0.640660 0.500020 0.500000 0.951301
H1    H     H_    0.649935 0.376493 0.737882 0.182465
H2    H     H_    0.330068 0.394742 0.264059 0.178322
H3    H     H_    0.752696 0.531213 0.252891 0.192699
H4    H     H_    0.260556 0.573828 0.745299 0.179772
H5    H     H_    0.727437 0.888103 0.501586 0.152110
H6    H     H_    0.272569 0.111909 0.498364 0.152866
H7    H     H_    0.727429 0.111981 0.501434 0.153086
H8    H     H_    0.272572 0.888030 0.498533 0.152510
H9    H     H_    0.855434 0.630821 0.591589 0.125419
H10   H     H_    0.144588 0.369226 0.408378 0.122763
H11   H     H_    0.116613 0.630556 0.591635 0.122466
H12   H     H_    0.883395 0.369462 0.408355 0.127054
N1    N     N_R   0.147930 0.499970 0.499980 -0.162462
N2    N     N_R   0.852070 0.500030 0.500020 -0.163590
O1    O     O_R   0.381260 0.680340 0.500000 -0.588450
O2    O     O_R   0.618740 0.319660 0.500000 -0.589269
O3    O     O_R   0.618830 0.680370 0.500010 -0.588351
O4    O     O_R   0.381170 0.319630 0.499990 -0.588591
O5    O     O_R   0.367440 0.500000 0.613600 -0.582608
O6    O     O_R   0.632560 0.500000 0.386400 -0.586006
O7    O     O_R   0.605010 0.500030 0.613600 -0.584597
O8    O     O_R   0.394990 0.499970 0.386400 -0.585026
O9    O     O_3   0.680702 0.504557 0.974621 -0.600148
C29   C     C_3   0.699907 0.634684 0.975285 0.030187
H13   H     H_    0.809039 0.653230 0.990318 0.188069
H14   H     H_    0.629246 0.684593 0.019810 0.113905
C30   C     C_3   0.683742 0.688364 0.894598 -0.372685
H15   H     H_    0.755485 0.639011 0.850702 0.250453
H16   H     H_    0.573810 0.675824 0.879265 0.215518
C31   C     C_3   0.718044 0.826076 0.891896 -0.861709
H17   H     H_    0.645350 0.877323 0.934335 0.259336
H18   H     H_    0.705253 0.862174 0.832780 0.263976
H19   H     H_    0.828635 0.842081 0.905520 0.264178
O10   O     O_3   0.312861 0.520685 0.027555 -0.612039
C32   C     C_3   0.311121 0.651760 0.033132 0.009775
H20   H     H_    0.204270 0.683522 0.020913 0.196764
H21   H     H_    0.386454 0.699018 0.989835 0.122164
C33   C     C_3   0.336041 0.693863 0.115567 -0.367406
H22   H     H_    0.261424 0.645215 0.158172 0.253483
H23   H     H_    0.445229 0.671212 0.128421 0.213905
C34   C     C_3   0.315110 0.833003 0.125120 -0.852486
H24   H     H_    0.389952 0.883498 0.083610 0.261104
H25   H     H_    0.334961 0.860738 0.185173 0.258711
H26   H     H_    0.205283 0.858950 0.114777 0.265636
C35   C     C_2   0.176837 0.540797 0.891823 0.878500
O11   O     O_2   0.114119 0.466406 0.935323 -0.487535
O12   O     O_R   0.110298 0.649918 0.871847 -0.797554
H27   H     H_    0.012009 0.658416 0.898764 0.328141
C36   C     C_2   0.825916 0.477136 0.106203 0.915698
O13   O     O_2   0.863438 0.396457 0.059199 -0.473176
O14   O     O_R   0.923387 0.564302 0.128416 -0.791854
H28   H     H_    0.020520 0.552154 0.100514 0.367338
C37   C     C_2   0.330417 0.317707 0.118530 0.933681
O15   O     O_2   0.208870 0.318657 0.148157 -0.579063
O16   O     O_R   0.367850 0.237508 0.056828 -0.721220
H29   H     H_    0.285155 0.186837 0.041180 0.352060
C38   C     C_2   0.633745 0.302772 0.884150 0.937781
O17   O     O_2   0.755745 0.289789 0.856662 -0.558615
O18   O     O_R   0.580139 0.225775 0.944257 -0.725392
H30   H     H_    0.652780 0.164921 0.960842 0.346593

loop_
_geom_bond_atom_site_label_1
_geom_bond_atom_site_label_2
_ccdc_geom_bond_type
C38   O17   D    
C4    H6    S    
C5    H7    S    
C1    C8    S    
C2    C7    S    
Cu2   O7    S    
O14   H28   S    
Cu1   O5    S    
O12   H27   S    
C2    O2    A    
C31   H19   S    
C31   H18   S    
C19   C21   A    
C24   C26   A    
C19   C38   S    
O16   H29   S    
C30   H16   S    
C9    H9    S    
C10   H10   S    
C12   H12   S    
C26   H3    S    
C13   O7    A    
C14   O8    A    
C33   H22   S    
C32   H21   S    
C6    H8    S    
C11   N1    A    
C18   C20   A    
C25   H4    S    
C21   C27   S    
C22   C28   S    
Cu1   N1    S    
Cu2   N2    S    
C4    C7    A    
C5    C7    A    
C16   C26   A    
C29   H14   S    
Cu1   O4    S    
Cu2   O3    S    
C4    C6    A    
C3    C8    A    
C36   O14   S    
C1    O3    A    
C30   C31   S    
C6    C8    A    
C2    O4    A    
O9    C29   S    
Cu1   O1    S    
C31   H17   S    
C35   O11   D    
Cu1   Cu2   S    
C9    C11   A    
C24   C36   S    
C37   O15   D    
C3    H5    S    
C32   C33   S    
C35   O12   S    
C10   C12   A    
C13   O5    A    
C16   C18   A    
C37   O16   S    
C20   C22   A    
C13   C15   S    
C17   H1    S    
C14   C16   S    
C18   H2    S    
C34   H25   S    
C15   C17   A    
C29   H13   S    
C9    N2    A    
C10   N1    A    
Cu2   O2    S    
C23   C35   S    
C3    C5    A    
C34   H26   S    
C28   O9    S    
O10   C32   S    
C21   C23   A    
C34   H24   S    
C12   N2    A    
C1    O1    A    
C30   H15   S    
C14   O6    A    
C33   C34   S    
C17   C19   A    
C11   H11   S    
C22   C24   A    
C23   C25   A    
Cu2   O6    S    
C15   C25   A    
C27   O10   S    
C36   O13   D    
C33   H23   S    
C32   H20   S    
C20   C37   S    
C27   C28   D    
C38   O18   S    
O18   H30   S    
C29   C30   S    
Cu1   O8    S    
