data_mof_unit_pretest_678.cif
_audit_creation_date              2012-12-10T17:21:38-0500
_audit_creation_method            fapswitch 2.2
_symmetry_space_group_name_H-M    P1
_symmetry_Int_Tables_number       1
_space_group_crystal_system       triclinic
_cell_length_a                    10.736539
_cell_length_b                    10.843029
_cell_length_c                    9.634741
_cell_angle_alpha                 87.760387
_cell_angle_beta                  89.70883
_cell_angle_gamma                 94.383563
_cell_volume                      1117.47177959

loop_
_atom_site_label
_atom_site_type_symbol
_atom_type_description
_atom_site_fract_x
_atom_site_fract_y
_atom_site_fract_z
_atom_type_partial_charge
C1    C     C_R   0.501796 0.261844 0.503407 0.766012
C2    C     C_3   0.876658 0.485473 0.500178 0.146233
C3    C     C_3   0.936506 0.620811 0.483443 -0.519542
C4    C     C_3   0.924100 0.413715 0.373952 0.046062
C5    C     C_R   0.490059 0.099828 0.771982 -0.182186
C6    C     C_R   0.446622 0.029342 0.889044 -0.267670
C7    C     C_R   0.390002 0.910548 0.875322 0.064727
C8    C     C_R   0.388139 0.859100 0.744397 -0.145464
C9    C     C_R   0.443230 0.925363 0.627174 0.055761
C10   C     C_R   0.477659 0.052962 0.636776 0.101620
C11   C     C_R   0.497659 0.125975 0.510598 -0.111934
C12   C     C_R   0.259902 0.495188 0.500440 0.757553
C13   C     C_R   0.497286 0.067369 0.383287 -0.212802
C14   C     C_R   0.483490 0.940291 0.378742 -0.219801
C15   C     C_R   0.465117 0.867785 0.500453 -0.110582
C16   C     C_R   0.706317 0.626580 0.130015 0.221979
C17   C     C_R   0.817430 0.638824 0.052156 -0.215816
C18   C     C_R   0.808213 0.656716 0.909835 -0.267477
C19   C     C_R   0.693052 0.633886 0.847417 -0.121525
C20   C     C_R   0.594840 0.566374 0.920846 0.157331
C21   C     C_R   0.598088 0.564029 0.069861 0.167039
C22   C     C_R   0.409929 0.436331 0.079156 -0.022199
C23   C     C_R   0.485775 0.735551 0.498862 0.784040
C24   C     C_R   0.411293 0.432044 0.932290 0.285971
C25   C     C_R   0.739032 0.493157 0.500048 0.750647
C26   C     C_3   0.067694 0.434984 0.641501 -0.384687
C27   C     C_3   0.923497 0.430220 0.642245 0.041597
C28   C     C_3   0.080067 0.623023 0.478805 -0.398500
C29   C     C_3   0.067594 0.408465 0.382866 -0.378509
C30   C     C_3   0.121522 0.490439 0.500771 0.096849
Cu1   Cu    Cu3+1 0.499990 0.499990 0.640660 0.921468
Cu2   Cu    Cu3+1 0.500010 0.500010 0.359340 0.936357
H1    H     H_    0.102659 0.493837 0.727293 0.174930
H2    H     H_    0.904992 0.469638 0.277979 0.166128
H3    H     H_    0.115355 0.663463 0.376736 0.184845
H4    H     H_    0.904582 0.666240 0.386059 0.174058
H5    H     H_    0.509798 0.119618 0.285393 0.162148
H6    H     H_    0.537592 0.188032 0.792595 0.185723
H7    H     H_    0.455655 0.068713 0.990528 0.126082
H8    H     H_    0.341082 0.768085 0.734112 0.187386
H9    H     H_    0.487332 0.899588 0.279163 0.147489
H10   H     H_    0.337153 0.383493 0.139076 0.133339
H11   H     H_    0.101907 0.341632 0.661319 0.166835
H12   H     H_    0.904241 0.671650 0.100189 0.156581
H13   H     H_    0.887840 0.696489 0.849612 0.156126
H14   H     H_    0.685034 0.668199 0.742566 0.196606
H15   H     H_    0.896406 0.492257 0.724643 0.171214
H16   H     H_    0.120276 0.683454 0.560774 0.166668
H17   H     H_    0.907229 0.676647 0.570802 0.165168
H18   H     H_    0.109375 0.440853 0.280623 0.166869
H19   H     H_    0.093799 0.311983 0.402510 0.162515
N1    N     N_R   0.501200 0.501210 0.147910 -0.208137
N2    N     N_R   0.501250 0.501290 0.852040 -0.193481
O1    O     O_R   0.499990 0.319640 0.618810 -0.606425
O2    O     O_R   0.500000 0.319660 0.381240 -0.585508
O3    O     O_R   0.317680 0.499970 0.618790 -0.585459
O4    O     O_R   0.317700 0.499990 0.381210 -0.578573
O5    O     O_R   0.500000 0.680340 0.618760 -0.599307
O6    O     O_R   0.500010 0.680360 0.381190 -0.571256
O7    O     O_R   0.682300 0.500010 0.618790 -0.602181
O8    O     O_R   0.682320 0.500030 0.381210 -0.581957
C31   C     C_2   0.336310 0.840203 0.998951 0.311630
H20   H     H_    0.333503 0.884192 0.097978 0.060457
O9    O     O_2   0.294489 0.732685 0.991933 -0.562686
C32   C     C_3   0.693879 0.740497 0.211216 -0.767127
H21   H     H_    0.763458 0.818101 0.179491 0.191984
H22   H     H_    0.603303 0.776550 0.185700 0.229084
H23   H     H_    0.709349 0.723243 0.323229 0.235421
C33   C     C_3   0.312001 0.344897 0.872691 -0.844042
H24   H     H_    0.326704 0.325528 0.763508 0.280394
H25   H     H_    0.309902 0.253892 0.930023 0.190935
H26   H     H_    0.219630 0.382075 0.886501 0.214225
C34   C     C_3   0.865004 0.300144 0.687566 -0.856953
H27   H     H_    0.869441 0.288409 0.802463 0.225576
H28   H     H_    0.765590 0.286181 0.657445 0.244765
H29   H     H_    0.916502 0.225506 0.644488 0.232187
C35   C     C_3   0.858294 0.284478 0.351465 -0.881998
H30   H     H_    0.755651 0.283647 0.363534 0.248467
H31   H     H_    0.877793 0.257186 0.244028 0.226840
H32   H     H_    0.892626 0.212162 0.422167 0.239865

loop_
_geom_bond_atom_site_label_1
_geom_bond_atom_site_label_2
_ccdc_geom_bond_type
C23   O5    A    
C16   C21   A    
C34   H27   S    
C19   C20   A    
C1    C11   S    
C3    H17   S    
C19   H14   S    
C7    C8    A    
C35   H30   S    
C23   O6    A    
C26   C27   S    
C29   C30   S    
Cu1   O5    S    
C3    C28   S    
Cu2   O8    S    
C5    C6    A    
C18   C19   A    
C33   H25   S    
Cu2   N1    S    
C31   O9    D    
C28   H3    S    
C16   C17   A    
C32   H22   S    
C26   H11   S    
C2    C27   S    
C25   O7    A    
Cu1   O3    S    
C9    C10   A    
Cu2   O2    S    
C13   H5    S    
C4    C29   S    
C15   C23   S    
C13   C14   A    
C34   H28   S    
Cu2   O4    S    
C24   C33   S    
C29   H18   S    
C35   H31   S    
C4    H2    S    
C5    H6    S    
C8    C9    A    
C24   N2    A    
Cu1   O7    S    
C33   H26   S    
C2    C4    S    
C1    O1    A    
C7    C31   S    
C31   H20   S    
C26   H1    S    
Cu1   Cu2   S    
C32   H23   S    
C17   C18   A    
C25   O8    A    
Cu1   N2    S    
C12   O3    A    
C14   H9    S    
C12   O4    A    
C26   C30   S    
C34   H29   S    
C22   C24   A    
C18   H13   S    
C22   N1    A    
C29   H19   S    
C35   H32   S    
C27   H15   S    
C28   H16   S    
C12   C30   S    
C14   C15   A    
C20   N2    A    
C6    C7    A    
C28   C30   S    
C2    C3    S    
C9    C15   A    
C17   H12   S    
C4    C35   S    
C11   C13   A    
C22   H10   S    
C3    H4    S    
C2    C25   S    
Cu1   O1    S    
C1    O2    A    
C33   H24   S    
C10   C11   A    
C5    C10   A    
C20   C21   A    
C32   H21   S    
C6    H7    S    
C16   C32   S    
C8    H8    S    
Cu2   O6    S    
C27   C34   S    
C21   N1    A    
