data_mof_unit_pretest_368.cif
_audit_creation_date              2012-12-11T15:12:47-0500
_audit_creation_method            fapswitch 2.2
_symmetry_space_group_name_H-M    P1
_symmetry_Int_Tables_number       1
_space_group_crystal_system       triclinic
_cell_length_a                    22.338492
_cell_length_b                    6.943179
_cell_length_c                    19.373201
_cell_angle_alpha                 89.998152
_cell_angle_beta                  99.169116
_cell_angle_gamma                 89.9997
_cell_volume                      2966.39209869

loop_
_atom_site_label
_atom_site_type_symbol
_atom_type_description
_atom_site_fract_x
_atom_site_fract_y
_atom_site_fract_z
_atom_type_partial_charge
O1    O     O_R   0.448420 0.506120 0.415750 -0.535596
O2    O     O_R   0.551580 0.006120 0.584250 -0.535595
O3    O     O_R   0.436490 0.174470 0.555610 -0.536978
O4    O     O_R   0.563510 0.674470 0.444390 -0.536976
C1    C     C_R   0.421067 0.344687 0.575790 0.719193
C2    C     C_R   0.578933 0.844691 0.424210 0.719194
O5    O     O_R   0.441310 0.176330 0.414520 -0.536643
O6    O     O_R   0.558690 0.676330 0.585480 -0.536646
O7    O     O_R   0.556430 0.007110 0.442150 -0.535281
O8    O     O_R   0.443570 0.507110 0.557850 -0.535278
C3    C     C_R   0.426770 0.345076 0.388377 0.685895
C4    C     C_R   0.573231 0.845070 0.611622 0.685892
O9    O     O_3   0.537770 0.339560 0.509230 -0.365319
O10   O     O_3   0.462230 0.839560 0.490770 -0.365318
V1    V     V_3+5 0.492990 0.064280 0.498290 1.425997
V2    V     V_3+5 0.507010 0.564280 0.501710 1.426000
C5    C     C_R   0.867128 0.976528 0.695639 -0.163054
C6    C     C_R   0.132866 0.476396 0.304363 -0.163053
H1    H     H_    0.954276 0.003428 0.759672 0.102018
H2    H     H_    0.045718 0.503290 0.240330 0.102016
H3    H     H_    0.784913 0.972636 0.580879 0.119311
H4    H     H_    0.215080 0.472464 0.419125 0.119312
C7    C     C_R   0.884468 0.941242 0.821495 -0.038691
C8    C     C_R   0.115531 0.441212 0.178505 -0.038685
C9    C     C_R   0.590041 0.818324 0.739829 -0.163636
C10   C     C_R   0.409965 0.318454 0.260169 -0.163642
C11   C     C_R   0.626641 0.816536 0.804955 -0.123997
C12   C     C_R   0.373367 0.316710 0.195042 -0.123997
C13   C     C_R   0.688939 0.846638 0.810992 -0.158109
C14   C     C_R   0.311066 0.346763 0.189006 -0.158110
C15   C     C_R   0.716619 0.880112 0.751301 0.078585
C16   C     C_R   0.283382 0.380142 0.248698 0.078585
C17   C     C_R   0.678489 0.883556 0.684340 0.069063
C18   C     C_R   0.321510 0.383546 0.315661 0.069065
C19   C     C_R   0.780749 0.909963 0.755842 0.073550
C20   C     C_R   0.219250 0.409945 0.244158 0.073553
C21   C     C_R   0.804786 0.944227 0.693286 0.141820
C22   C     C_R   0.195210 0.444137 0.306715 0.141820
C23   C     C_R   0.766606 0.946870 0.628621 -0.204061
C24   C     C_R   0.233388 0.446752 0.371381 -0.204063
C25   C     C_R   0.704598 0.916714 0.624095 -0.194688
C26   C     C_R   0.295398 0.416630 0.375906 -0.194685
C27   C     C_R   0.822120 0.907868 0.820006 -0.216564
C28   C     C_R   0.177881 0.407872 0.179993 -0.216567
C29   C     C_R   0.906445 0.976151 0.759138 -0.170204
C30   C     C_R   0.093550 0.476048 0.240863 -0.170207
C31   C     C_R   0.614929 0.852000 0.679164 -0.083579
C32   C     C_R   0.385073 0.352032 0.320835 -0.083573
H5    H     H_    0.807478 0.883031 0.869626 0.091556
H6    H     H_    0.192523 0.383079 0.130372 0.091554
H7    H     H_    0.541813 0.792853 0.736671 0.100914
H8    H     H_    0.458196 0.293026 0.263325 0.100911
H9    H     H_    0.714128 0.842623 0.863209 0.104353
H10   H     H_    0.285879 0.342790 0.136788 0.104354
H11   H     H_    0.606529 0.790664 0.851392 0.112869
H12   H     H_    0.393482 0.290914 0.148603 0.112869
H13   H     H_    0.677147 0.919955 0.572724 0.109415
H14   H     H_    0.322849 0.419846 0.427278 0.109407
C33   C     C_3   0.808433 0.749589 0.262327 -0.327556
C34   C     C_3   0.191434 0.250131 0.737494 -0.327577
C35   C     C_3   0.786196 0.103353 0.247900 -0.330898
C36   C     C_3   0.213986 0.603617 0.752309 -0.330935
C37   C     C_3   0.738153 0.085930 0.297666 -0.328036
C38   C     C_3   0.262029 0.586186 0.702545 -0.328061
H15   H     H_    0.782681 0.754009 0.367049 0.137016
H16   H     H_    0.217217 0.255126 0.632789 0.137004
H17   H     H_    0.853664 0.779818 0.293685 0.136361
H18   H     H_    0.146236 0.280936 0.706156 0.136361
H19   H     H_    0.830990 0.140878 0.278906 0.136651
H20   H     H_    0.169231 0.641713 0.721330 0.136634
H21   H     H_    0.760096 0.115047 0.352363 0.136870
H22   H     H_    0.240127 0.615880 0.647874 0.136863
H23   H     H_    0.702456 0.197325 0.283637 0.135399
H24   H     H_    0.297824 0.697201 0.716708 0.135425
C39   C     C_1   0.624809 0.854906 0.378858 -0.191291
C40   C     C_1   0.375191 0.354895 0.621141 -0.191293
C41   C     C_3   0.791248 0.912139 0.207708 0.293098
C42   C     C_3   0.208752 0.412148 0.792292 0.293124
C43   C     C_3   0.760343 0.732143 0.312038 -0.328777
C44   C     C_3   0.239523 0.232680 0.687781 -0.328805
C45   C     C_3   0.708961 0.882410 0.292840 0.291421
C46   C     C_3   0.291038 0.382402 0.707160 0.291445
C47   C     C_3   0.679682 0.847558 0.215690 -0.328167
C48   C     C_3   0.320267 0.346746 0.784278 -0.328170
C49   C     C_3   0.727757 0.864885 0.165956 -0.328914
C50   C     C_3   0.272193 0.364088 0.834012 -0.328909
C51   C     C_1   0.662779 0.866255 0.340412 -0.101485
C52   C     C_1   0.337220 0.366241 0.659587 -0.101490
C53   C     C_1   0.837392 0.928259 0.160076 -0.102196
C54   C     C_1   0.162608 0.428273 0.839924 -0.102202
C55   C     C_1   0.875271 0.939568 0.121505 -0.194532
C56   C     C_1   0.124728 0.439581 0.878494 -0.194532
H25   H     H_    0.729686 0.727344 0.136891 0.136115
H26   H     H_    0.270132 0.226347 0.862925 0.136109
H27   H     H_    0.713764 0.979666 0.126588 0.136307
H28   H     H_    0.286280 0.478467 0.873508 0.136301
H29   H     H_    0.658725 0.701801 0.210259 0.135599
H30   H     H_    0.341089 0.200782 0.789555 0.135587
H31   H     H_    0.811949 0.609777 0.235146 0.135984
H32   H     H_    0.187789 0.110148 0.764522 0.136012
H33   H     H_    0.740950 0.584127 0.308429 0.137533
H34   H     H_    0.258783 0.084487 0.691235 0.137580
H35   H     H_    0.642812 0.954137 0.199996 0.136469
H36   H     H_    0.357232 0.452912 0.800101 0.136469
O11   O     O_R   0.056480 0.288780 0.942210 -0.535573
O12   O     O_R   0.943520 0.788780 0.057790 -0.535574
O13   O     O_R   0.058700 0.616820 0.085490 -0.538076
O14   O     O_R   0.941300 0.116820 0.914510 -0.538079
C57   C     C_R   0.073216 0.448385 0.111713 0.693380
C58   C     C_R   0.926783 0.948391 0.888286 0.693378
O15   O     O_R   0.063520 0.618570 0.944410 -0.537713
O16   O     O_R   0.936480 0.118570 0.055590 -0.537711
O17   O     O_R   0.948420 0.787670 0.915740 -0.535995
O18   O     O_R   0.051580 0.287670 0.084260 -0.535997
C59   C     C_R   0.078976 0.449780 0.924024 0.726422
C60   C     C_R   0.921024 0.949777 0.075976 0.726425
O19   O     O_3   0.962260 0.453430 0.990800 -0.366463
O20   O     O_3   0.037740 0.953430 0.009200 -0.366462
V3    V     V_3+5 0.007000 0.728750 0.001710 1.419881
V4    V     V_3+5 0.993000 0.228750 0.998290 1.419883
H37   H     H_    0.773315 0.222903 0.210174 0.135198
H38   H     H_    0.226963 0.722794 0.790167 0.135228
H39   H     H_    0.885543 0.003417 0.648054 0.107830
H40   H     H_    0.114448 0.503231 0.351950 0.107830

loop_
_geom_bond_atom_site_label_1
_geom_bond_atom_site_label_2
_ccdc_geom_bond_type
C22   C24   A    
H15   C43   S    
O12   V3    S    
C11   C13   A    
C33   H31   S    
O14   V4    S    
O1    C3    A    
O16   C60   A    
O2    C4    A    
C26   H14   S    
C2    O7    A    
C12   H12   S    
C2    C39   S    
C23   C25   A    
C42   C54   S    
O5    C3    A    
C14   H10   S    
C41   C53   S    
C47   H35   S    
C37   C45   S    
C7    C29   A    
C16   C20   A    
C35   H37   S    
C19   C21   A    
C5    C29   A    
O19   V3    S    
C11   H11   S    
C17   C31   A    
C34   C42   S    
C7    C27   A    
C55   C60   S    
C36   H20   S    
O15   V3    S    
C35   C37   S    
O20   V3    S    
C36   C38   S    
C50   H26   S    
C33   H17   S    
O17   V3    S    
C49   H25   S    
C5    H39   S    
C35   C41   S    
C18   C26   A    
C15   C17   A    
O11   V4    S    
C53   C55   T    
C19   C27   A    
C9    C31   A    
C10   C32   A    
C42   C50   S    
C24   C26   A    
C41   C49   S    
O6    V2    S    
O13   C57   A    
C33   C41   S    
C3    C32   S    
C4    C31   S    
C6    C30   A    
O13   V3    S    
C45   C47   S    
C36   C42   S    
C44   C46   S    
O19   V4    S    
C33   C43   S    
C43   C45   S    
C27   H5    S    
O5    V1    S    
C37   H23   S    
C34   H32   S    
O12   C60   A    
C16   C18   A    
O4    V2    S    
C9    H7    S    
C10   H8    S    
C54   C56   T    
H3    C23   S    
O6    C4    A    
H4    C24   S    
O1    V2    S    
C5    C21   A    
O2    V1    S    
C58   O17   A    
C38   C46   S    
C45   C51   S    
C50   H28   S    
C57   O18   A    
C39   C51   T    
C47   C49   S    
C37   H21   S    
C46   C48   S    
O9    V1    S    
C8    C28   A    
O10   V2    S    
C20   C28   A    
O4    C2    A    
C18   C32   A    
C36   H38   S    
O3    V1    S    
O16   V4    S    
C35   H19   S    
O18   V4    S    
C7    C58   S    
C40   C52   T    
C34   C44   S    
O11   C59   A    
C8    C57   S    
C48   C50   S    
O3    C1    A    
H1    C29   S    
C9    C11   A    
H16   C44   S    
C10   C12   A    
C48   H30   S    
C1    C40   S    
C20   C22   A    
C6    C22   A    
C17   C25   A    
C1    O8    A    
C13   C15   A    
O8    V2    S    
C14   C16   A    
C49   H27   S    
C48   H36   S    
C13   H9    S    
C46   C52   S    
C12   C14   A    
O14   C58   A    
C15   C19   A    
C38   H22   S    
O7    V1    S    
C56   C59   S    
O20   V4    S    
C25   H13   S    
C34   H18   S    
C28   H6    S    
C21   C23   A    
C47   H29   S    
O9    V2    S    
C44   H34   S    
C38   H24   S    
O10   V1    S    
C43   H33   S    
O15   C59   A    
H2    C30   S    
C6    H40   S    
C8    C30   A    
