data_mof_unit_pretest_805.cif
_audit_creation_date              2012-12-11T17:06:33-0500
_audit_creation_method            fapswitch 2.2
_symmetry_space_group_name_H-M    P1
_symmetry_Int_Tables_number       1
_space_group_crystal_system       triclinic
_cell_length_a                    6.98947
_cell_length_b                    14.609852
_cell_length_c                    15.889792
_cell_angle_alpha                 90.515734
_cell_angle_beta                  90.096495
_cell_angle_gamma                 89.635572
_cell_volume                      1622.48735263

loop_
_atom_site_label
_atom_site_type_symbol
_atom_type_description
_atom_site_fract_x
_atom_site_fract_y
_atom_site_fract_z
_atom_type_partial_charge
O1    O     O_R   0.494400 0.415450 0.412630 -0.553063
O2    O     O_R   0.823940 0.405730 0.586760 -0.544373
O3    O     O_R   0.994240 0.584550 0.587370 -0.537701
C1    C     C_R   0.655475 0.383595 0.614967 0.707742
O4    O     O_R   0.824110 0.404430 0.413240 -0.516349
O5    O     O_R   0.994420 0.583240 0.412620 -0.538176
C2    C     C_R   0.655934 0.384005 0.383064 0.727456
O6    O     O_R   0.494230 0.416760 0.587380 -0.542917
O7    O     O_3   0.660800 0.558670 0.500000 -0.372054
V1    V     V_3+5 0.935650 0.489120 0.500000 1.420152
O8    O     O_R   0.324140 0.594270 0.413240 -0.542128
C3    C     C_R   0.154289 0.615328 0.383991 0.700848
O9    O     O_R   0.323960 0.595570 0.586760 -0.540800
C4    C     C_R   0.154989 0.617728 0.615434 0.680704
V2    V     V_3+5 0.435660 0.510880 0.500000 1.389039
O10   O     O_3   0.160640 0.441330 0.500000 -0.377675
C5    C     C_3   0.055351 0.669121 0.772420 -0.147339
C6    C     C_3   0.228130 0.716659 0.815230 -0.163374
H1    H     H_    0.306452 0.690954 0.871160 0.097270
H2    H     H_    0.991369 0.603391 0.792215 0.097827
C7    C     C_3   0.121587 0.808980 0.810117 -0.009959
C8    C     C_3   0.948588 0.762246 0.768061 -0.109502
C9    C     C_3   0.037916 0.779884 0.680547 -0.138984
C10   C     C_3   0.210690 0.827439 0.723387 -0.122421
C11   C     C_3   0.317445 0.734309 0.727723 -0.114206
C12   C     C_3   0.144438 0.687533 0.685689 -0.006324
H3    H     H_    0.796294 0.774001 0.784965 0.106254
H4    H     H_    0.959592 0.805614 0.624626 0.115341
H5    H     H_    0.274867 0.893151 0.703646 0.116509
H6    H     H_    0.469751 0.722629 0.710798 0.110664
C13   C     C_R   0.266104 0.814973 0.241789 0.057311
C14   C     C_R   0.117598 0.813999 0.182485 -0.132965
C15   C     C_R   0.967340 0.751908 0.196669 -0.148113
H7    H     H_    0.846656 0.749451 0.154100 0.122798
C16   C     C_R   0.977024 0.688298 0.263032 -0.187849
H8    H     H_    0.863166 0.639131 0.269619 0.119488
C17   C     C_R   0.138282 0.684267 0.316556 -0.106177
C18   C     C_R   0.277372 0.750980 0.306028 0.126688
C19   C     C_3   0.488684 0.741146 0.298740 -0.452668
C20   C     C_3   0.477113 0.812791 0.229841 -0.187521
H9    H     H_    0.530556 0.672253 0.274639 0.148827
H10   H     H_    0.564145 0.763140 0.357115 0.200083
H11   H     H_    0.518877 0.786847 0.166402 0.110700
C21   C     C_R   0.517148 0.321424 0.748409 0.097833
C22   C     C_R   0.648806 0.315056 0.682570 -0.119888
C23   C     C_R   0.780070 0.241840 0.683818 -0.237458
H12   H     H_    0.885277 0.235917 0.633917 0.143327
C24   C     C_R   0.768426 0.171956 0.744627 -0.001479
C25   C     C_R   0.626390 0.177526 0.809495 -0.168140
C26   C     C_R   0.507669 0.255296 0.810543 0.076908
C27   C     C_3   0.294578 0.262816 0.814867 -0.388210
C28   C     C_3   0.305596 0.335004 0.746775 -0.412570
H13   H     H_    0.244769 0.290579 0.876450 0.164239
H14   H     H_    0.222585 0.199301 0.793476 0.210756
H15   H     H_    0.262753 0.404447 0.769176 0.160655
H16   H     H_    0.239795 0.312854 0.686192 0.179150
C29   C     C_R   0.472426 0.282636 0.285241 -0.008352
C30   C     C_R   0.646586 0.318229 0.311751 -0.161089
C31   C     C_R   0.809017 0.286856 0.267420 0.345815
C32   C     C_R   0.797247 0.202070 0.223766 -0.089537
C33   C     C_R   0.624410 0.183149 0.181152 -0.228844
C34   C     C_R   0.460379 0.223841 0.215121 -0.033890
C35   C     C_3   0.307136 0.171679 0.255951 -0.310873
C36   C     C_3   0.335193 0.228197 0.335395 0.321984
H17   H     H_    0.339695 0.097462 0.262516 0.188200
H18   H     H_    0.179436 0.189015 0.218983 0.160324
H19   H     H_    0.208970 0.268260 0.356626 0.130922
O11   O     O_R   0.771650 0.079500 0.908680 -0.517929
O12   O     O_R   0.441690 0.091800 0.082800 -0.544258
O13   O     O_R   0.271460 0.912980 0.083410 -0.547248
C37   C     C_R   0.610832 0.113062 0.112751 0.803240
O14   O     O_R   0.441930 0.090510 0.909280 -0.538128
O15   O     O_R   0.271690 0.911670 0.908660 -0.544115
C38   C     C_R   0.610909 0.109323 0.878057 0.695870
O16   O     O_R   0.771410 0.080810 0.083440 -0.504710
O17   O     O_3   0.605100 0.937580 0.996050 -0.379159
V3    V     V_3+5 0.330220 0.007110 0.996030 1.476495
O18   O     O_R   0.941980 0.900620 0.909250 -0.542634
C39   C     C_R   0.110991 0.878455 0.880610 0.716146
O19   O     O_R   0.941740 0.901920 0.082770 -0.508768
C40   C     C_R   0.110758 0.879633 0.111390 0.722410
V4    V     V_3+5 0.830220 0.985300 0.996000 1.525286
O20   O     O_3   0.105210 0.054870 0.996020 -0.356287
C41   C     C_2   0.564007 0.902491 0.254413 0.777955
O21   O     O_2   0.666738 0.941025 0.204454 -0.549422
O22   O     O_R   0.525591 0.942174 0.333116 -0.660945
H20   H     H_    0.592533 0.002851 0.341574 0.330658
C42   C     C_2   0.890266 0.089962 0.729563 0.696374
O23   O     O_2   0.997015 0.061009 0.784199 -0.567220
O24   O     O_R   0.890616 0.048929 0.649727 -0.667580
H21   H     H_    0.982052 0.994935 0.645715 0.287644
O25   O     O_3   0.980765 0.332344 0.271377 -0.571357
C43   C     C_3   0.969338 0.410147 0.219413 0.094074
H22   H     H_    0.873925 0.463019 0.248149 0.105746
H23   H     H_    0.915375 0.392319 0.155219 0.104631
C44   C     C_3   0.167717 0.450905 0.209859 -0.735771
H24   H     H_    0.158015 0.516494 0.175290 0.174064
H25   H     H_    0.232188 0.463868 0.272681 0.222899
H26   H     H_    0.261151 0.402933 0.173922 0.211209
C45   C     C_2   0.886453 0.122751 0.267255 0.765849
O26   O     O_2   0.894456 0.122050 0.344224 -0.556351
O27   O     O_R   0.967187 0.050428 0.221297 -0.641923
H27   H     H_    0.025932 0.001958 0.258805 0.293594
O28   O     O_3   0.431628 0.176493 0.397725 -0.539486
C46   C     C_3   0.342160 0.188709 0.476590 0.077434
H28   H     H_    0.190116 0.166425 0.473817 0.158492
H29   H     H_    0.348829 0.261722 0.496914 0.127349
C47   C     C_3   0.445947 0.131112 0.541741 -0.627149
H30   H     H_    0.599615 0.149750 0.543663 0.244199
H31   H     H_    0.382242 0.143331 0.604897 0.169519
H32   H     H_    0.433464 0.057341 0.525302 0.236456

loop_
_geom_bond_atom_site_label_1
_geom_bond_atom_site_label_2
_ccdc_geom_bond_type
C35   H17   S    
C43   H22   S    
C6    C7    S    
C20   C41   S    
O12   V3    S    
C16   H8    S    
C1    O6    A    
O24   H21   S    
C29   C34   A    
C19   H9    S    
C22   C23   A    
C13   C20   S    
C14   C40   S    
C46   H29   S    
C34   C35   S    
C5    C12   S    
C16   C17   A    
C17   C18   A    
C41   O22   S    
O5    C3    A    
C18   C19   S    
V3    O20   S    
O11   C38   A    
V2    O10   S    
C44   H26   S    
C5    H2    S    
C47   H30   S    
C6    H1    S    
C9    C12   S    
C3    C17   S    
O12   C37   A    
O13   C40   A    
C10   H5    S    
O25   C43   S    
O8    V2    S    
C41   O21   D    
C20   H11   S    
C47   H31   S    
C44   H25   S    
C9    C10   S    
C24   C42   S    
O1    V2    S    
O7    V1    S    
C2    C30   S    
C28   H15   S    
C21   C28   S    
C35   H18   S    
C31   C32   A    
C43   H23   S    
O9    C4    A    
O13   V3    S    
O27   H27   S    
C6    C11   S    
O28   C46   S    
C26   C27   S    
C19   H10   S    
C1    C22   S    
C46   C47   S    
C23   C24   A    
C27   C28   S    
C36   H19   S    
C10   C11   S    
O19   V4    S    
O17   V4    S    
C19   C20   S    
O4    C2    A    
O18   C39   A    
C11   C12   S    
C4    C12   S    
C32   C33   A    
C27   H13   S    
O2    C1    A    
O14   V3    S    
O18   V4    S    
C13   C14   A    
C44   H24   S    
C7    C39   S    
C45   O27   S    
C5    C6    S    
O15   C39   A    
C25   C38   S    
C9    H4    S    
O17   V3    S    
O3    C4    A    
O14   C38   A    
C24   C25   A    
C42   O24   S    
V4    O20   S    
O6    V2    S    
C8    H3    S    
O9    V2    S    
O2    V1    S    
C21   C22   A    
O22   H20   S    
C29   C36   S    
C21   C26   A    
C11   H6    S    
C36   O28   S    
C23   H12   S    
O1    C2    A    
O19   C40   A    
C32   C45   S    
O5    V1    S    
O8    C3    A    
C13   C18   A    
O16   V4    S    
C43   C44   S    
C46   H28   S    
C5    C8    S    
C47   H32   S    
C27   H14   S    
O11   V4    S    
C14   C15   A    
C30   C31   A    
O4    V1    S    
O3    V1    S    
V1    O10   S    
C37   O16   A    
C33   C37   S    
C29   C30   A    
C45   O26   D    
C15   C16   A    
C15   H7    S    
C31   O25   S    
O7    V2    S    
C33   C34   A    
C35   C36   S    
C42   O23   D    
C25   C26   A    
C7    C10   S    
O15   V3    S    
C8    C9    S    
C7    C8    S    
C28   H16   S    
