data_mof_unit_pretest_1719.cif
_audit_creation_date              2012-10-26T19:37:59-0400
_audit_creation_method            fapswitch 2.2
_symmetry_space_group_name_H-M    P1
_symmetry_Int_Tables_number       1
_space_group_crystal_system       triclinic
_cell_length_a                    10.645411
_cell_length_b                    15.797538
_cell_length_c                    17.145591
_cell_angle_alpha                 95.866204
_cell_angle_beta                  90.306092
_cell_angle_gamma                 92.116345
_cell_volume                      2866.21951356

loop_
_atom_site_label
_atom_site_type_symbol
_atom_type_description
_atom_site_fract_x
_atom_site_fract_y
_atom_site_fract_z
_atom_type_partial_charge
C1    C     C_R   0.499277 0.490046 0.348559 0.582555
C2    C     C_R   0.561078 0.247791 0.537941 0.037806
C3    C     C_R   0.442537 0.841515 0.464286 -0.147999
C4    C     C_R   0.557463 0.158485 0.535714 -0.147998
C5    C     C_R   0.526099 0.891087 0.516231 0.229040
C6    C     C_R   0.473901 0.108913 0.483769 0.229039
C7    C     C_R   0.603522 0.847897 0.564377 0.382911
C8    C     C_R   0.396478 0.152103 0.435623 0.382911
C9    C     C_R   0.596783 0.758480 0.560206 0.069904
C10   C     C_R   0.403217 0.241520 0.439794 0.069902
C11   C     C_R   0.259199 0.500454 0.499841 0.582960
C12   C     C_R   0.500725 0.509954 0.651441 0.582555
C13   C     C_R   0.740801 0.499546 0.500159 0.582965
C14   C     C_3   0.039070 0.455201 0.433796 -0.152780
C15   C     C_3   0.960930 0.544799 0.566204 -0.152778
C16   C     C_3   0.959247 0.534840 0.438134 0.394109
C17   C     C_3   0.040753 0.465160 0.561866 0.394109
C18   C     C_3   0.877282 0.498742 0.500507 -0.013721
C19   C     C_3   0.122718 0.501257 0.499493 -0.013722
C20   C     C_3   0.955525 0.418473 0.497184 -0.133223
C21   C     C_3   0.044475 0.581527 0.502816 -0.133225
C22   C     C_R   0.498828 0.485450 0.262546 0.018912
C23   C     C_R   0.497345 0.474742 0.098040 0.173665
C24   C     C_R   0.501177 0.514550 0.737454 0.018914
C25   C     C_R   0.507665 0.560109 0.224179 0.373840
C26   C     C_R   0.492378 0.439890 0.775821 0.373835
C27   C     C_R   0.506930 0.554733 0.142800 -0.026280
C28   C     C_R   0.493115 0.445266 0.857200 -0.026277
C29   C     C_R   0.502663 0.525258 0.901960 0.173667
C30   C     C_R   0.488657 0.400812 0.136215 -0.112107
C31   C     C_R   0.511316 0.599189 0.863785 -0.112107
C32   C     C_R   0.489366 0.405860 0.217755 -0.197483
C33   C     C_R   0.510605 0.594140 0.782245 -0.197479
C34   C     C_R   0.438922 0.752209 0.462059 0.037804
Cu1   Cu    Cu3+1 0.493870 0.415220 0.496180 1.032338
Cu2   Cu    Cu3+1 0.506130 0.584780 0.503820 1.032339
F1    F     F_    0.913351 0.570781 0.374022 -0.576676
F2    F     F_    0.086649 0.429219 0.625978 -0.576684
F3    F     F_    0.685534 0.892361 0.615360 -0.596943
F4    F     F_    0.314466 0.107639 0.384640 -0.596944
F5    F     F_    0.482841 0.361434 0.735255 -0.594029
F6    F     F_    0.517240 0.638563 0.264746 -0.594010
H1    H     H_    0.656933 0.726080 0.597622 0.147234
H2    H     H_    0.513903 0.613383 0.115233 0.176555
H3    H     H_    0.481242 0.338971 0.102490 0.159430
H4    H     H_    0.518704 0.661031 0.897510 0.159428
H5    H     H_    0.482331 0.347370 0.245618 0.159194
H6    H     H_    0.517611 0.652632 0.754383 0.159196
H7    H     H_    0.619500 0.129008 0.574288 0.177723
H8    H     H_    0.380500 0.870991 0.425712 0.177720
H9    H     H_    0.343066 0.273920 0.402379 0.147232
H10   H     H_    0.625404 0.285202 0.577917 0.176885
H11   H     H_    0.374596 0.714798 0.422082 0.176867
H12   H     H_    0.073458 0.419696 0.379328 0.145411
H13   H     H_    0.926542 0.580304 0.620672 0.145413
H14   H     H_    0.917306 0.351999 0.495943 0.158614
H15   H     H_    0.082694 0.648001 0.504057 0.158613
H16   H     H_    0.486173 0.386615 0.884767 0.176555
N1    N     N_2   0.496089 0.465663 0.014950 -0.227571
N2    N     N_2   0.503918 0.534336 0.985050 -0.227572
N3    N     N_R   0.515330 0.712130 0.509560 -0.271433
N4    N     N_R   0.484670 0.287870 0.490440 -0.271436
N5    N     N_2   0.535783 0.982699 0.522240 -0.171565
N6    N     N_2   0.464217 0.017300 0.477760 -0.171565
O1    O     O_R   0.494270 0.420530 0.382500 -0.538045
O2    O     O_R   0.505730 0.579470 0.617500 -0.538047
O3    O     O_R   0.504620 0.563720 0.388950 -0.419632
O4    O     O_R   0.495380 0.436280 0.611050 -0.419630
O5    O     O_R   0.311680 0.428420 0.496760 -0.477574
O6    O     O_R   0.688320 0.571580 0.503240 -0.477569
O7    O     O_R   0.322030 0.571610 0.503210 -0.522026
O8    O     O_R   0.677970 0.428390 0.496790 -0.522023

loop_
_geom_bond_atom_site_label_1
_geom_bond_atom_site_label_2
_ccdc_geom_bond_type
C15   C18   S    
C16   C21   S    
C30   H3    S    
Cu1   Cu2   S    
C20   H14   S    
Cu2   O3    S    
C23   N1    S    
C12   O4    A    
C11   C19   S    
C22   C32   A    
C13   C18   S    
C9    N3    A    
C28   C29   A    
C19   C21   S    
C24   C26   A    
Cu2   O2    S    
C13   O6    A    
Cu1   O1    S    
C17   C20   S    
C5    N5    S    
C15   C17   S    
C6    N6    S    
C1    O3    A    
C27   H2    S    
C22   C25   A    
C1    O1    A    
C31   C33   A    
C23   C27   A    
C18   C20   S    
Cu2   O7    S    
C16   F1    S    
N1    N2    D    
C10   N4    A    
C10   H9    S    
C3    H8    S    
Cu2   O6    S    
C9    H1    S    
C23   C30   A    
C14   C20   S    
C4    C6    A    
C5    C7    A    
C1    C22   S    
C6    C8    A    
C3    C34   A    
C12   O2    A    
C31   H4    S    
C34   N3    A    
C15   H13   S    
C2    C4    A    
C21   H15   S    
C29   N2    S    
C2    H10   S    
C8    C10   A    
C14   H12   S    
Cu1   O8    S    
C32   H5    S    
C14   C16   S    
Cu2   N3    S    
C7    C9    A    
C14   C19   S    
C3    C5    A    
C25   F6    S    
C11   O5    A    
C13   O8    A    
C28   H16   S    
C25   C27   A    
C12   C24   S    
C26   C28   A    
C24   C33   A    
C4    H7    S    
C29   C31   A    
C30   C32   A    
Cu1   O4    S    
C17   C19   S    
Cu1   N4    S    
C11   O7    A    
C17   F2    S    
N5    N6    D    
C15   C21   S    
Cu1   O5    S    
C34   H11   S    
C16   C18   S    
C33   H6    S    
C7    F3    S    
C8    F4    S    
C2    N4    A    
C26   F5    S    
