data_mof_unit_pretest_1502.cif
_audit_creation_date              2012-12-10T16:55:52-0500
_audit_creation_method            fapswitch 2.2
_symmetry_space_group_name_H-M    P1
_symmetry_Int_Tables_number       1
_space_group_crystal_system       triclinic
_cell_length_a                    14.348467
_cell_length_b                    10.94944
_cell_length_c                    9.697733
_cell_angle_alpha                 90.016656
_cell_angle_beta                  89.811327
_cell_angle_gamma                 90.236423
_cell_volume                      1523.56702846

loop_
_atom_site_label
_atom_site_type_symbol
_atom_type_description
_atom_site_fract_x
_atom_site_fract_y
_atom_site_fract_z
_atom_type_partial_charge
C1    C     C_R   0.502836 0.265586 0.499964 0.852221
C2    C     C_1   0.771263 0.500015 0.499478 -0.189373
C3    C     C_2   0.507333 0.933745 0.393515 -0.205652
C4    C     C_2   0.479538 0.865167 0.501479 -0.164356
C5    C     C_2   0.498172 0.066814 0.388953 -0.160211
C6    C     C_2   0.512946 0.134505 0.501558 -0.293596
C7    C     C_2   0.447354 0.427621 0.923075 0.037205
C8    C     C_2   0.452085 0.422780 0.078474 -0.098811
C9    C     C_R   0.331082 0.499875 0.500230 0.817533
C10   C     C_R   0.495820 0.734525 0.500155 0.798277
C11   C     C_R   0.668925 0.500095 0.499782 0.810287
C12   C     C_1   0.228762 0.499810 0.500600 -0.174342
C13   C     C_1   0.143361 0.499789 0.500563 0.006742
C14   C     C_1   0.042719 0.499813 0.500263 0.014602
C15   C     C_1   0.957315 0.499862 0.499933 0.012530
C16   C     C_1   0.856669 0.499942 0.499587 -0.001357
Cu1   Cu    Cu3+1 0.500020 0.500020 0.638630 0.961400
Cu2   Cu    Cu3+1 0.499980 0.499980 0.361370 0.945701
H1    H     H_    0.538882 0.890869 0.303818 0.168891
H2    H     H_    0.483432 0.109178 0.290159 0.173295
H3    H     H_    0.534721 0.093324 0.597933 0.161638
H4    H     H_    0.548695 0.551959 0.893755 0.189029
H5    H     H_    0.411880 0.352487 0.130950 0.156254
H6    H     H_    0.533344 0.569519 0.105546 0.195130
N1    N     N_2   0.499070 0.498660 0.846910 -0.295853
N2    N     N_2   0.499040 0.498630 0.153040 -0.274935
O1    O     O_R   0.500010 0.321960 0.617040 -0.567606
O2    O     O_R   0.499990 0.321920 0.382900 -0.574969
O3    O     O_R   0.376070 0.500020 0.617100 -0.549003
O4    O     O_R   0.376040 0.499980 0.382950 -0.553604
O5    O     O_R   0.500010 0.678080 0.617100 -0.568648
O6    O     O_R   0.499990 0.678040 0.382960 -0.574877
O7    O     O_R   0.623960 0.500020 0.617050 -0.558968
O8    O     O_R   0.623930 0.499980 0.382900 -0.552399
C17   C     C_1   0.424424 0.913112 0.614962 0.271750
N3    N     N_1   0.380348 0.950949 0.705448 -0.266653
C18   C     C_1   0.381707 0.345895 0.858505 0.333851
N4    N     N_1   0.328832 0.280015 0.807335 -0.281124

loop_
_geom_bond_atom_site_label_1
_geom_bond_atom_site_label_2
_ccdc_geom_bond_type
C1    O2    A    
C3    H1    S    
C18   N4    T    
Cu2   O4    S    
C2    C16   T    
C8    N2    D    
C17   N3    T    
C7    N1    D    
C9    O3    A    
Cu1   N1    S    
Cu1   Cu2   S    
C7    C18   S    
C4    C17   S    
C7    C8    S    
C5    H2    S    
C13   C14   S    
Cu2   O8    S    
Cu1   O7    S    
C9    O4    A    
C2    C11   S    
H6    N2    S    
C5    C6    D    
Cu1   O5    S    
C9    C12   S    
Cu2   O6    S    
C4    C10   S    
C15   C16   S    
Cu1   O1    S    
C10   O6    A    
Cu1   O3    S    
C11   O7    A    
C8    H5    S    
Cu2   O2    S    
C12   C13   T    
C1    O1    A    
C14   C15   T    
C6    H3    S    
C10   O5    A    
C11   O8    A    
C3    C4    D    
C1    C6    S    
C3    C5    S    
H4    N1    S    
Cu2   N2    S    
