data_mof_unit_pretest_1582.cif
_audit_creation_date              2012-12-10T19:34:50-0500
_audit_creation_method            fapswitch 2.2
_symmetry_space_group_name_H-M    P1
_symmetry_Int_Tables_number       1
_space_group_crystal_system       triclinic
_cell_length_a                    26.032833
_cell_length_b                    43.191699
_cell_length_c                    43.062929
_cell_angle_alpha                 90.000068
_cell_angle_beta                  90.004575
_cell_angle_gamma                 90.023126
_cell_volume                      48420.0517563

loop_
_atom_site_label
_atom_site_type_symbol
_atom_type_description
_atom_site_fract_x
_atom_site_fract_y
_atom_site_fract_z
_atom_type_partial_charge
C1    C     C_R   0.610038 0.499953 0.250007 0.806909
C2    C     C_R   0.389962 0.499957 0.749998 0.806532
C3    C     C_R   0.389961 0.499955 0.250003 0.804081
C4    C     C_R   0.610039 0.499951 0.749994 0.805245
C5    C     C_R   0.110038 0.499953 0.750007 0.806630
C6    C     C_R   0.889962 0.499957 0.249998 0.807163
C7    C     C_R   0.889961 0.499956 0.750004 0.805680
C8    C     C_R   0.110039 0.499952 0.249993 0.804198
C9    C     C_R   0.110038 0.999954 0.250008 0.807206
C10   C     C_R   0.889962 0.999957 0.749997 0.806501
C11   C     C_R   0.889961 0.999956 0.250003 0.804121
C12   C     C_R   0.110039 0.999951 0.749993 0.805217
C13   C     C_R   0.610038 0.999953 0.750007 0.806594
C14   C     C_R   0.389962 0.999957 0.249997 0.806845
C15   C     C_R   0.389961 0.999957 0.750004 0.805675
C16   C     C_R   0.610039 0.999952 0.249993 0.804189
C17   C     C_R   0.703497 0.733825 0.249023 -0.183341
C18   C     C_R   0.296524 0.733852 0.750985 -0.183515
C19   C     C_R   0.296519 0.733856 0.249041 -0.183161
C20   C     C_R   0.703477 0.733830 0.750951 -0.183239
C21   C     C_R   0.203476 0.733826 0.749019 -0.183621
C22   C     C_R   0.796547 0.733853 0.250944 -0.183620
C23   C     C_R   0.796528 0.733855 0.749040 -0.183304
C24   C     C_R   0.203467 0.733829 0.250939 -0.183229
C25   C     C_R   0.203491 0.233825 0.249022 -0.183153
C26   C     C_R   0.796533 0.233851 0.750989 -0.183468
C27   C     C_R   0.796524 0.233856 0.249039 -0.183079
C28   C     C_R   0.203467 0.233830 0.750954 -0.183200
C29   C     C_R   0.703487 0.233827 0.748995 -0.183612
C30   C     C_R   0.296541 0.233853 0.250958 -0.183584
C31   C     C_R   0.296517 0.233854 0.749014 -0.183301
C32   C     C_R   0.703473 0.233830 0.250953 -0.183167
C33   C     C_R   0.750025 0.717431 0.249986 0.106228
C34   C     C_R   0.250002 0.717431 0.750006 0.106227
C35   C     C_R   0.249995 0.717433 0.249987 0.106582
C36   C     C_R   0.750004 0.717433 0.749992 0.106523
C37   C     C_R   0.250018 0.217431 0.249992 0.106231
C38   C     C_R   0.750011 0.217431 0.749996 0.106221
C39   C     C_R   0.750000 0.217434 0.249992 0.106552
C40   C     C_R   0.249993 0.217433 0.749980 0.106509
C41   C     C_R   0.750013 0.782513 0.249977 0.106517
C42   C     C_R   0.249995 0.782513 0.749991 0.106478
C43   C     C_R   0.249986 0.782516 0.249999 0.106198
C44   C     C_R   0.749998 0.782516 0.750007 0.106211
C45   C     C_R   0.250008 0.282513 0.249982 0.106488
C46   C     C_R   0.750007 0.282513 0.749978 0.106463
C47   C     C_R   0.749993 0.282516 0.250006 0.106198
C48   C     C_R   0.249989 0.282515 0.749998 0.106204
C49   C     C_R   0.783219 0.666873 0.269718 -0.183055
C50   C     C_R   0.216846 0.666855 0.730261 -0.183365
C51   C     C_R   0.216782 0.666857 0.269695 -0.182728
C52   C     C_R   0.783223 0.666872 0.730282 -0.182795
C53   C     C_R   0.283167 0.666871 0.769753 -0.183227
C54   C     C_R   0.716839 0.666855 0.230261 -0.183175
C55   C     C_R   0.716794 0.666857 0.769701 -0.182658
C56   C     C_R   0.283223 0.666872 0.230283 -0.182629
C57   C     C_R   0.283202 0.166872 0.269730 -0.182799
C58   C     C_R   0.716864 0.166855 0.730248 -0.183333
C59   C     C_R   0.716792 0.166857 0.269702 -0.182632
C60   C     C_R   0.283191 0.166871 0.730259 -0.182793
C61   C     C_R   0.783160 0.166872 0.769756 -0.183214
C62   C     C_R   0.216843 0.166855 0.230261 -0.183106
C63   C     C_R   0.216803 0.166858 0.769703 -0.182642
C64   C     C_R   0.783219 0.166873 0.230282 -0.182599
C65   C     C_R   0.783209 0.634603 0.269736 -0.191733
C66   C     C_R   0.216852 0.634587 0.730247 -0.192292
C67   C     C_R   0.216789 0.634588 0.269710 -0.189725
C68   C     C_R   0.783220 0.634602 0.730270 -0.190633
C69   C     C_R   0.283163 0.634602 0.769767 -0.192244
C70   C     C_R   0.716839 0.634586 0.230252 -0.192181
C71   C     C_R   0.716799 0.634589 0.769715 -0.189581
C72   C     C_R   0.283222 0.634602 0.230272 -0.189668
C73   C     C_R   0.283194 0.134603 0.269747 -0.191255
C74   C     C_R   0.716868 0.134586 0.730236 -0.192255
C75   C     C_R   0.716797 0.134588 0.269715 -0.189688
C76   C     C_R   0.283191 0.134602 0.730251 -0.190631
C77   C     C_R   0.783154 0.134602 0.769771 -0.192234
C78   C     C_R   0.216845 0.134587 0.230250 -0.192087
C79   C     C_R   0.216810 0.134589 0.769720 -0.189576
C80   C     C_R   0.783217 0.134603 0.230270 -0.189616
C81   C     C_R   0.750020 0.618171 0.249998 -0.002507
C82   C     C_R   0.250008 0.618170 0.750006 -0.002513
C83   C     C_R   0.250007 0.618171 0.249992 -0.003702
C84   C     C_R   0.750009 0.618171 0.749993 -0.003446
C85   C     C_R   0.250016 0.118170 0.250001 -0.002608
C86   C     C_R   0.750010 0.118170 0.750004 -0.002533
C87   C     C_R   0.750008 0.118171 0.249993 -0.003726
C88   C     C_R   0.250003 0.118171 0.749988 -0.003421
C89   C     C_R   0.750029 0.683272 0.249988 0.115673
C90   C     C_R   0.250005 0.683272 0.750008 0.115683
C91   C     C_R   0.250000 0.683273 0.249987 0.114995
C92   C     C_R   0.750007 0.683273 0.749991 0.115166
C93   C     C_R   0.250022 0.183272 0.249995 0.115605
C94   C     C_R   0.750012 0.183272 0.750001 0.115680
C95   C     C_R   0.750004 0.183274 0.249991 0.114989
C96   C     C_R   0.249995 0.183273 0.749979 0.115182
C97   C     C_R   0.974109 0.518819 0.269009 0.134103
C98   C     C_R   0.025921 0.518894 0.731072 0.133448
C99   C     C_R   0.025931 0.518814 0.269007 0.133091
C100  C     C_R   0.974099 0.518895 0.731070 0.134207
C101  C     C_R   0.474110 0.518843 0.768984 0.132956
C102  C     C_R   0.525920 0.518838 0.231016 0.133048
C103  C     C_R   0.525932 0.518838 0.768983 0.132496
C104  C     C_R   0.474099 0.518838 0.231013 0.132471
C105  C     C_R   0.474110 0.018843 0.268985 0.134009
C106  C     C_R   0.525921 0.018901 0.731079 0.133424
C107  C     C_R   0.525931 0.018838 0.268983 0.133089
C108  C     C_R   0.474099 0.018902 0.731078 0.134238
C109  C     C_R   0.974110 0.018843 0.768985 0.132955
C110  C     C_R   0.025920 0.018835 0.231013 0.133054
C111  C     C_R   0.025932 0.018837 0.768983 0.132502
C112  C     C_R   0.974099 0.018834 0.231010 0.132490
C113  C     C_R   0.945534 0.499689 0.249726 -0.083619
C114  C     C_R   0.054467 0.499675 0.750271 -0.083500
C115  C     C_R   0.054469 0.499682 0.249721 -0.083313
C116  C     C_R   0.945531 0.499679 0.750267 -0.083313
C117  C     C_R   0.445534 0.499684 0.749731 -0.083140
C118  C     C_R   0.554466 0.499682 0.250277 -0.082972
C119  C     C_R   0.554469 0.499676 0.749726 -0.082790
C120  C     C_R   0.445531 0.499684 0.250272 -0.082804
C121  C     C_R   0.445534 0.999687 0.249728 -0.083599
C122  C     C_R   0.554467 0.999675 0.750270 -0.083488
C123  C     C_R   0.554469 0.999679 0.249723 -0.083316
C124  C     C_R   0.445531 0.999678 0.750267 -0.083294
C125  C     C_R   0.945534 0.999685 0.749730 -0.083121
C126  C     C_R   0.054467 0.999685 0.250281 -0.082958
C127  C     C_R   0.054469 0.999677 0.749725 -0.082776
C128  C     C_R   0.945531 0.999687 0.250275 -0.082763
C129  C     C_R   0.972976 0.479784 0.229660 -0.226301
C130  C     C_R   0.026994 0.479677 0.770239 -0.226301
C131  C     C_R   0.026990 0.479781 0.229657 -0.227918
C132  C     C_R   0.972980 0.479679 0.770237 -0.227837
C133  C     C_R   0.472976 0.479744 0.729699 -0.226226
C134  C     C_R   0.526994 0.479753 0.270314 -0.227141
C135  C     C_R   0.526990 0.479741 0.729696 -0.227710
C136  C     C_R   0.472980 0.479754 0.270313 -0.227916
C137  C     C_R   0.472976 0.979752 0.229692 -0.226375
C138  C     C_R   0.526994 0.979668 0.770229 -0.226315
C139  C     C_R   0.526990 0.979749 0.229689 -0.227972
C140  C     C_R   0.472980 0.979670 0.770228 -0.227858
C141  C     C_R   0.972976 0.979748 0.729696 -0.226272
C142  C     C_R   0.026994 0.979765 0.270326 -0.227057
C143  C     C_R   0.026990 0.979744 0.729692 -0.227829
C144  C     C_R   0.972980 0.979766 0.270324 -0.227966
C145  C     C_R   0.750043 0.499942 0.334117 0.784063
C146  C     C_R   0.250038 0.500014 0.666024 0.776460
C147  C     C_R   0.249905 0.499930 0.333965 0.775994
C148  C     C_R   0.750032 0.499946 0.665882 0.782049
C149  C     C_R   0.249963 0.500014 0.833983 0.776764
C150  C     C_R   0.750037 0.500014 0.166020 0.776267
C151  C     C_R   0.749904 0.499930 0.833962 0.775432
C152  C     C_R   0.250095 0.499930 0.166035 0.775936
C153  C     C_R   0.249988 0.999981 0.334118 0.784119
C154  C     C_R   0.750038 0.000013 0.666028 0.776230
C155  C     C_R   0.749904 0.999930 0.333969 0.776206
C156  C     C_R   0.250001 0.999972 0.665884 0.782016
C157  C     C_R   0.749963 0.000014 0.833983 0.776773
C158  C     C_R   0.250037 0.000014 0.166020 0.776268
C159  C     C_R   0.249904 0.999930 0.833962 0.775436
C160  C     C_R   0.750095 0.999930 0.166035 0.775930
C161  C     C_3   0.529641 0.043127 0.293428 -0.478513
C162  C     C_3   0.470430 0.043307 0.706750 -0.481574
C163  C     C_3   0.470458 0.043134 0.293429 -0.480349
C164  C     C_3   0.529613 0.043308 0.706751 -0.476756
C165  C     C_3   0.029642 0.043130 0.793424 -0.478613
C166  C     C_3   0.970429 0.043106 0.206548 -0.478711
C167  C     C_3   0.970459 0.043137 0.793426 -0.477265
C168  C     C_3   0.029612 0.043109 0.206551 -0.477180
C169  C     C_3   0.029640 0.543058 0.293497 -0.478512
C170  C     C_3   0.970430 0.543286 0.706728 -0.481557
C171  C     C_3   0.970456 0.543064 0.293498 -0.480342
C172  C     C_3   0.029613 0.543287 0.706730 -0.476824
C173  C     C_3   0.529642 0.543135 0.793420 -0.478614
C174  C     C_3   0.470429 0.543122 0.206564 -0.478731
C175  C     C_3   0.470459 0.543142 0.793420 -0.477268
C176  C     C_3   0.529612 0.543125 0.206567 -0.477210
C177  C     C_R   0.794150 0.502316 0.884923 -0.197120
C178  C     C_R   0.205853 0.502312 0.115074 -0.197133
C179  C     C_R   0.250075 0.472856 0.884792 -0.197189
C180  C     C_R   0.749900 0.472856 0.115209 -0.197193
C181  C     C_R   0.294353 0.501838 0.384893 -0.196982
C182  C     C_R   0.790416 0.514226 0.615298 -0.193223
C183  C     C_R   0.726434 0.475492 0.384618 -0.203208
C184  C     C_R   0.249157 0.472930 0.615190 -0.197185
C185  C     C_R   0.294150 0.002316 0.884923 -0.197123
C186  C     C_R   0.705853 0.002312 0.115074 -0.197134
C187  C     C_R   0.750075 0.972856 0.884792 -0.197186
C188  C     C_R   0.249900 0.972856 0.115209 -0.197186
C189  C     C_R   0.794497 0.001396 0.384876 -0.196864
C190  C     C_R   0.209648 0.985772 0.615266 -0.192403
C191  C     C_R   0.224077 0.976878 0.384886 -0.193853
C192  C     C_R   0.748440 0.972994 0.615176 -0.197395
C193  C     C_R   0.792359 0.503150 0.917297 -0.188375
C194  C     C_R   0.207646 0.503145 0.082701 -0.188340
C195  C     C_R   0.252010 0.473602 0.917166 -0.190406
C196  C     C_R   0.747966 0.473603 0.082835 -0.190432
C197  C     C_R   0.292677 0.502728 0.417267 -0.188722
C198  C     C_R   0.791451 0.513276 0.582932 -0.198112
C199  C     C_R   0.727842 0.474814 0.416971 -0.134756
C200  C     C_R   0.247344 0.473740 0.582815 -0.189920
C201  C     C_R   0.292359 0.003150 0.917297 -0.188374
C202  C     C_R   0.707647 0.003145 0.082701 -0.188341
C203  C     C_R   0.752011 0.973602 0.917166 -0.190407
C204  C     C_R   0.247967 0.973603 0.082835 -0.190435
C205  C     C_R   0.792905 0.002338 0.417250 -0.189015
C206  C     C_R   0.208710 0.986717 0.582900 -0.197729
C207  C     C_R   0.223319 0.977384 0.417262 -0.204518
C208  C     C_R   0.746712 0.973856 0.582801 -0.189706
C209  C     C_R   0.745181 0.500263 0.932931 0.147608
C210  C     C_R   0.254823 0.500263 0.067068 0.147610
C211  C     C_R   0.252081 0.502060 0.933012 0.148829
C212  C     C_R   0.747924 0.502061 0.066989 0.148824
C213  C     C_R   0.245456 0.500422 0.432947 0.147897
C214  C     C_R   0.752593 0.497832 0.566668 0.133026
C215  C     C_R   0.753002 0.498345 0.433431 0.156306
C216  C     C_R   0.248267 0.502214 0.567005 0.148526
C217  C     C_R   0.245180 0.000263 0.932931 0.147608
C218  C     C_R   0.754823 0.000262 0.067068 0.147610
C219  C     C_R   0.752081 0.002060 0.933012 0.148829
C220  C     C_R   0.247924 0.002061 0.066989 0.148824
C221  C     C_R   0.745652 0.000564 0.432962 0.148154
C222  C     C_R   0.247741 0.002038 0.566674 0.132626
C223  C     C_R   0.247314 0.001549 0.433436 0.156072
C224  C     C_R   0.748503 0.002334 0.567021 0.148300
C225  C     C_R   0.700067 0.495910 0.915609 -0.131605
C226  C     C_R   0.299931 0.495914 0.084390 -0.131574
C227  C     C_R   0.249092 0.529673 0.915923 -0.132548
C228  C     C_R   0.750939 0.529674 0.084080 -0.132573
C229  C     C_R   0.200166 0.496580 0.415675 -0.131685
C230  C     C_R   0.712223 0.483770 0.582828 -0.170216
C231  C     C_R   0.776554 0.522659 0.417247 -0.204685
C232  C     C_R   0.252115 0.529765 0.584138 -0.132286
C233  C     C_R   0.200067 0.995910 0.915609 -0.131605
C234  C     C_R   0.799932 0.995914 0.084390 -0.131575
C235  C     C_R   0.749092 0.029673 0.915923 -0.132546
C236  C     C_R   0.250939 0.029674 0.084080 -0.132571
C237  C     C_R   0.700223 0.997194 0.415724 -0.131914
C238  C     C_R   0.288202 0.015960 0.582872 -0.170273
C239  C     C_R   0.272837 0.024925 0.416964 -0.135198
C240  C     C_R   0.753125 0.029823 0.584186 -0.132141
C241  C     C_R   0.701628 0.496268 0.883270 -0.211138
C242  C     C_R   0.298370 0.496272 0.116728 -0.211133
C243  C     C_R   0.249096 0.528954 0.883579 -0.211200
C244  C     C_R   0.750933 0.528955 0.116424 -0.211197
C245  C     C_R   0.201649 0.496881 0.383335 -0.211140
C246  C     C_R   0.711408 0.484388 0.615194 -0.199016
C247  C     C_R   0.775710 0.523170 0.384871 -0.195022
C248  C     C_R   0.251973 0.529003 0.616481 -0.211134
C249  C     C_R   0.201628 0.996268 0.883270 -0.211135
C250  C     C_R   0.798370 0.996272 0.116728 -0.211131
C251  C     C_R   0.749097 0.028954 0.883579 -0.211201
C252  C     C_R   0.250933 0.028955 0.116424 -0.211202
C253  C     C_R   0.701656 0.997442 0.383383 -0.211083
C254  C     C_R   0.288918 0.015355 0.615237 -0.200007
C255  C     C_R   0.274135 0.024257 0.384611 -0.204440
C256  C     C_R   0.752890 0.029029 0.616528 -0.211139
C257  C     C_R   0.748657 0.499441 0.867837 0.023679
C258  C     C_R   0.251343 0.499441 0.132160 0.023510
C259  C     C_R   0.249558 0.500556 0.867900 0.018939
C260  C     C_R   0.750443 0.500556 0.132103 0.019126
C261  C     C_R   0.248729 0.499484 0.367849 0.022805
C262  C     C_R   0.750556 0.499589 0.631714 0.000426
C263  C     C_R   0.750609 0.499589 0.368283 -0.001955
C264  C     C_R   0.250527 0.500596 0.632116 0.019830
C265  C     C_R   0.248657 0.999441 0.867837 0.023677
C266  C     C_R   0.751343 0.999441 0.132160 0.023510
C267  C     C_R   0.749559 0.000556 0.867900 0.018936
C268  C     C_R   0.250443 0.000556 0.132103 0.019127
C269  C     C_R   0.748778 0.999519 0.367860 0.022068
C270  C     C_R   0.249579 0.000295 0.631719 0.000514
C271  C     C_R   0.249507 0.000318 0.368286 -0.002121
C272  C     C_R   0.750585 0.000625 0.632128 0.020593
C273  C     C_R   0.708889 0.520473 0.983526 0.175576
C274  C     C_R   0.291137 0.520477 0.016474 0.175574
C275  C     C_R   0.289633 0.521463 0.983576 0.175190
C276  C     C_R   0.710394 0.521460 0.016424 0.175192
C277  C     C_R   0.209967 0.521146 0.483533 0.175590
C278  C     C_R   0.774343 0.471373 0.516403 0.166798
C279  C     C_R   0.775686 0.472001 0.483596 0.190143
C280  C     C_R   0.211503 0.522123 0.516431 0.175340
C281  C     C_R   0.208889 0.020473 0.983526 0.175575
C282  C     C_R   0.791137 0.020476 0.016474 0.175574
C283  C     C_R   0.789633 0.021462 0.983576 0.175189
C284  C     C_R   0.210394 0.021460 0.016424 0.175192
C285  C     C_R   0.710874 0.021728 0.483542 0.175516
C286  C     C_R   0.226674 0.028701 0.516411 0.167190
C287  C     C_R   0.225297 0.028081 0.483606 0.189850
C288  C     C_R   0.712431 0.022689 0.516440 0.175317
C289  C     C_R   0.745940 0.502683 0.032654 0.009413
C290  C     C_R   0.254067 0.502683 0.967347 0.009407
C291  C     C_R   0.256395 0.501156 0.032724 0.009623
C292  C     C_R   0.743611 0.501156 0.967276 0.009627
C293  C     C_R   0.246378 0.502900 0.532668 0.009502
C294  C     C_R   0.754564 0.497564 0.467586 0.014270
C295  C     C_R   0.753715 0.496959 0.532655 -0.005579
C296  C     C_R   0.243995 0.501383 0.467290 0.009616
C297  C     C_R   0.245939 0.002683 0.032654 0.009413
C298  C     C_R   0.754067 0.002682 0.967347 0.009408
C299  C     C_R   0.756395 0.001156 0.032724 0.009623
C300  C     C_R   0.243611 0.001156 0.967276 0.009627
C301  C     C_R   0.746690 0.003070 0.532681 0.009613
C302  C     C_R   0.245808 0.002344 0.467593 0.014495
C303  C     C_R   0.246680 0.002937 0.532662 -0.005431
C304  C     C_R   0.744272 0.001576 0.467304 0.009662
C305  C     C_R   0.779637 0.483593 0.016066 -0.238278
C306  C     C_R   0.220350 0.483589 0.983935 -0.238276
C307  C     C_R   0.221480 0.482847 0.016137 -0.238203
C308  C     C_R   0.778506 0.482852 0.983862 -0.238204
C309  C     C_R   0.279429 0.483400 0.516082 -0.238106
C310  C     C_R   0.734226 0.522587 0.484166 -0.245637
C311  C     C_R   0.733982 0.522324 0.516415 -0.217583
C312  C     C_R   0.278272 0.482664 0.483879 -0.238124
C313  C     C_R   0.279637 0.983593 0.016066 -0.238277
C314  C     C_R   0.720350 0.983589 0.983935 -0.238276
C315  C     C_R   0.721480 0.982847 0.016137 -0.238203
C316  C     C_R   0.278506 0.982852 0.983862 -0.238203
C317  C     C_R   0.779149 0.983209 0.516098 -0.238220
C318  C     C_R   0.265553 0.977151 0.484171 -0.246058
C319  C     C_R   0.265796 0.977407 0.516420 -0.217969
C320  C     C_R   0.777974 0.982483 0.483894 -0.238278
C321  C     C_R   0.749996 0.415853 0.250003 0.782617
C322  C     C_R   0.249996 0.415853 0.750003 0.781341
C323  C     C_R   0.249996 0.415852 0.249997 0.783357
C324  C     C_R   0.749997 0.415852 0.749996 0.783912
C325  C     C_R   0.249995 0.915853 0.250002 0.782244
C326  C     C_R   0.749996 0.915853 0.750003 0.781309
C327  C     C_R   0.749996 0.915852 0.249997 0.783345
C328  C     C_R   0.249996 0.915852 0.749997 0.783895
C329  C     C_R   0.750007 0.584092 0.250001 0.780359
C330  C     C_R   0.250004 0.584092 0.750003 0.779066
C331  C     C_R   0.250004 0.584092 0.249997 0.781883
C332  C     C_R   0.750004 0.584092 0.749997 0.782305
C333  C     C_R   0.250006 0.084092 0.250001 0.780761
C334  C     C_R   0.750004 0.084092 0.750002 0.779047
C335  C     C_R   0.750004 0.084092 0.249997 0.781942
C336  C     C_R   0.250003 0.084091 0.749996 0.782320
C337  C     C_R   0.783152 0.865355 0.269747 -0.188914
C338  C     C_R   0.216857 0.865342 0.730220 -0.189522
C339  C     C_R   0.216847 0.865343 0.269769 -0.190576
C340  C     C_R   0.783121 0.865357 0.730235 -0.190856
C341  C     C_R   0.283124 0.865356 0.769765 -0.188696
C342  C     C_R   0.716842 0.865342 0.230228 -0.188824
C343  C     C_R   0.716863 0.865343 0.769779 -0.190829
C344  C     C_R   0.283121 0.865357 0.230235 -0.190821
C345  C     C_R   0.283145 0.365355 0.269753 -0.188861
C346  C     C_R   0.716886 0.365343 0.730200 -0.189533
C347  C     C_R   0.716863 0.365343 0.269780 -0.190117
C348  C     C_R   0.283106 0.365358 0.730224 -0.190849
C349  C     C_R   0.783112 0.365355 0.769770 -0.188680
C350  C     C_R   0.216847 0.365342 0.230226 -0.188772
C351  C     C_R   0.216872 0.365342 0.769784 -0.190802
C352  C     C_R   0.783115 0.365357 0.230232 -0.190712
C353  C     C_R   0.783165 0.833086 0.269728 -0.182464
C354  C     C_R   0.216851 0.833072 0.730232 -0.182498
C355  C     C_R   0.216836 0.833073 0.269753 -0.182727
C356  C     C_R   0.783131 0.833089 0.730251 -0.182897
C357  C     C_R   0.283131 0.833087 0.769749 -0.182383
C358  C     C_R   0.716841 0.833072 0.230238 -0.182394
C359  C     C_R   0.716856 0.833073 0.769765 -0.182763
C360  C     C_R   0.283128 0.833089 0.230249 -0.182754
C361  C     C_R   0.283156 0.333087 0.269734 -0.182364
C362  C     C_R   0.716883 0.333073 0.730209 -0.182492
C363  C     C_R   0.716855 0.333073 0.269766 -0.182462
C364  C     C_R   0.283113 0.333089 0.730238 -0.182855
C365  C     C_R   0.783123 0.333086 0.769751 -0.182364
C366  C     C_R   0.216844 0.333072 0.230237 -0.182366
C367  C     C_R   0.216863 0.333072 0.769767 -0.182745
C368  C     C_R   0.783124 0.333088 0.230248 -0.182685
C369  C     C_R   0.750007 0.816672 0.249980 0.114690
C370  C     C_R   0.249992 0.816671 0.749990 0.114801
C371  C     C_R   0.249983 0.816674 0.250001 0.115240
C372  C     C_R   0.749995 0.816674 0.750008 0.115213
C373  C     C_R   0.250003 0.316672 0.249983 0.114677
C374  C     C_R   0.750005 0.316672 0.749978 0.114817
C375  C     C_R   0.749991 0.316674 0.250008 0.115169
C376  C     C_R   0.249988 0.316673 0.750002 0.115218
C377  C     C_R   0.749995 0.881773 0.249990 -0.004459
C378  C     C_R   0.249991 0.881773 0.749993 -0.004300
C379  C     C_R   0.249986 0.881774 0.250003 -0.003487
C380  C     C_R   0.749992 0.881774 0.750006 -0.003575
C381  C     C_R   0.249994 0.381773 0.249991 -0.004488
C382  C     C_R   0.749997 0.381773 0.749988 -0.004268
C383  C     C_R   0.749990 0.381774 0.250006 -0.003584
C384  C     C_R   0.249990 0.381774 0.750005 -0.003573
C385  C     C_R   0.703491 0.766091 0.249018 -0.183092
C386  C     C_R   0.296521 0.766118 0.750978 -0.183139
C387  C     C_R   0.296514 0.766122 0.249044 -0.183228
C388  C     C_R   0.703474 0.766096 0.750961 -0.183301
C389  C     C_R   0.203473 0.766092 0.749011 -0.183240
C390  C     C_R   0.796541 0.766120 0.250940 -0.183143
C391  C     C_R   0.796525 0.766121 0.749045 -0.183437
C392  C     C_R   0.203463 0.766095 0.250948 -0.183436
C393  C     C_R   0.203486 0.266092 0.249016 -0.183009
C394  C     C_R   0.796531 0.266118 0.750981 -0.183099
C395  C     C_R   0.796520 0.266122 0.249044 -0.183037
C396  C     C_R   0.203466 0.266096 0.750965 -0.183247
C397  C     C_R   0.703485 0.266093 0.748985 -0.183238
C398  C     C_R   0.296536 0.266119 0.250953 -0.183077
C399  C     C_R   0.296515 0.266120 0.749021 -0.183434
C400  C     C_R   0.703470 0.266096 0.250963 -0.183398
H1    H     H_    0.809032 0.877417 0.285288 0.159155
H2    H     H_    0.190994 0.877394 0.714671 0.158202
H3    H     H_    0.190982 0.877394 0.285315 0.157448
H4    H     H_    0.808981 0.877419 0.714684 0.158211
H5    H     H_    0.308988 0.877417 0.785315 0.159245
H6    H     H_    0.690960 0.877395 0.214692 0.159262
H7    H     H_    0.691004 0.877394 0.785328 0.158211
H8    H     H_    0.308988 0.877420 0.214689 0.158217
H9    H     H_    0.309019 0.377417 0.285296 0.159205
H10   H     H_    0.691039 0.377396 0.714642 0.158140
H11   H     H_    0.691007 0.377395 0.285331 0.157581
H12   H     H_    0.308956 0.377420 0.714669 0.158185
H13   H     H_    0.808959 0.377416 0.785332 0.159246
H14   H     H_    0.190970 0.377394 0.214686 0.159275
H15   H     H_    0.191024 0.377393 0.785339 0.158212
H16   H     H_    0.808973 0.377419 0.214680 0.158226
H17   H     H_    0.830757 0.504731 0.873206 0.138757
H18   H     H_    0.169249 0.504723 0.126791 0.138753
H19   H     H_    0.250379 0.450742 0.872923 0.141641
H20   H     H_    0.749573 0.450742 0.127079 0.141619
H21   H     H_    0.331003 0.503810 0.373141 0.139382
H22   H     H_    0.821061 0.526096 0.627454 0.156429
H23   H     H_    0.706891 0.457002 0.372403 0.156801
H24   H     H_    0.248098 0.450810 0.627034 0.141025
H25   H     H_    0.330757 0.004731 0.873206 0.138758
H26   H     H_    0.669249 0.004724 0.126791 0.138758
H27   H     H_    0.750379 0.950742 0.872923 0.141643
H28   H     H_    0.249574 0.950742 0.127079 0.141626
H29   H     H_    0.831181 0.002962 0.373103 0.139960
H30   H     H_    0.178870 0.974006 0.627395 0.157599
H31   H     H_    0.204935 0.958108 0.372871 0.157989
H32   H     H_    0.746720 0.950879 0.627001 0.140392
H33   H     H_    0.827738 0.506328 0.930147 0.135900
H34   H     H_    0.172272 0.506321 0.069850 0.135896
H35   H     H_    0.253930 0.451979 0.929850 0.135756
H36   H     H_    0.746026 0.451979 0.070151 0.135758
H37   H     H_    0.328184 0.505501 0.430081 0.135914
H38   H     H_    0.822583 0.524438 0.570542 0.136854
H39   H     H_    0.709126 0.456024 0.429213 0.131719
H40   H     H_    0.244745 0.452159 0.570101 0.135823
H41   H     H_    0.327738 0.006329 0.930147 0.135899
H42   H     H_    0.672272 0.006321 0.069850 0.135897
H43   H     H_    0.753930 0.951978 0.929850 0.135757
H44   H     H_    0.246027 0.951979 0.070151 0.135757
H45   H     H_    0.828511 0.004738 0.430040 0.135827
H46   H     H_    0.177511 0.975657 0.570479 0.137410
H47   H     H_    0.203424 0.959189 0.429722 0.137246
H48   H     H_    0.743500 0.952318 0.570065 0.135757
H49   H     H_    0.663709 0.491914 0.927018 0.152116
H50   H     H_    0.336285 0.491920 0.072982 0.152113
H51   H     H_    0.246216 0.551782 0.927525 0.151956
H52   H     H_    0.753838 0.551783 0.072478 0.151959
H53   H     H_    0.163717 0.493028 0.427124 0.152050
H54   H     H_    0.681518 0.472271 0.570362 0.133400
H55   H     H_    0.796166 0.540973 0.429698 0.137102
H56   H     H_    0.255766 0.551851 0.572572 0.152098
H57   H     H_    0.163709 0.991913 0.927018 0.152117
H58   H     H_    0.836286 0.991920 0.072982 0.152113
H59   H     H_    0.746216 0.051782 0.927525 0.151955
H60   H     H_    0.253838 0.051783 0.072478 0.151959
H61   H     H_    0.663695 0.994051 0.427202 0.151952
H62   H     H_    0.319059 0.027339 0.570438 0.132947
H63   H     H_    0.291910 0.043592 0.429194 0.131639
H64   H     H_    0.757452 0.051879 0.572646 0.152191
H65   H     H_    0.666303 0.493428 0.870268 0.136067
H66   H     H_    0.333690 0.493435 0.129731 0.136079
H67   H     H_    0.247682 0.550531 0.870775 0.140863
H68   H     H_    0.752369 0.550532 0.129228 0.140843
H69   H     H_    0.166201 0.494441 0.370375 0.136669
H70   H     H_    0.680023 0.473149 0.627259 0.156865
H71   H     H_    0.794509 0.542058 0.372846 0.157545
H72   H     H_    0.254056 0.550540 0.629322 0.140211
H73   H     H_    0.166303 0.993428 0.870268 0.136068
H74   H     H_    0.833690 0.993435 0.129731 0.136075
H75   H     H_    0.747682 0.050531 0.870775 0.140862
H76   H     H_    0.252369 0.050532 0.129228 0.140833
H77   H     H_    0.666114 0.995370 0.370454 0.137246
H78   H     H_    0.320375 0.026490 0.627334 0.155550
H79   H     H_    0.293963 0.042631 0.372391 0.156647
H80   H     H_    0.755575 0.050525 0.629398 0.139632
H81   H     H_    0.807294 0.469240 0.028150 0.155820
H82   H     H_    0.192677 0.469233 0.971850 0.155823
H83   H     H_    0.194918 0.467754 0.028227 0.155846
H84   H     H_    0.805053 0.467762 0.971773 0.155845
H85   H     H_    0.306584 0.468705 0.528170 0.155798
H86   H     H_    0.718086 0.542293 0.472033 0.157196
H87   H     H_    0.718080 0.541929 0.528829 0.159058
H88   H     H_    0.304289 0.467241 0.471792 0.155817
H89   H     H_    0.307294 0.969240 0.028150 0.155820
H90   H     H_    0.692677 0.969233 0.971850 0.155822
H91   H     H_    0.694918 0.967754 0.028227 0.155845
H92   H     H_    0.305053 0.967762 0.971773 0.155844
H93   H     H_    0.805840 0.968210 0.528187 0.155693
H94   H     H_    0.281221 0.957311 0.472039 0.156906
H95   H     H_    0.281220 0.957664 0.528833 0.158859
H96   H     H_    0.803507 0.966767 0.471809 0.155723
H97   H     H_    0.808655 0.820955 0.285440 0.130202
H98   H     H_    0.191381 0.820929 0.714508 0.129915
H99   H     H_    0.191360 0.820929 0.285471 0.129753
H100  H     H_    0.808600 0.820957 0.714528 0.129890
H101  H     H_    0.308601 0.820956 0.785474 0.130301
H102  H     H_    0.691355 0.820930 0.214522 0.130307
H103  H     H_    0.691387 0.820929 0.785487 0.130010
H104  H     H_    0.308602 0.820958 0.214529 0.130007
H105  H     H_    0.308639 0.320956 0.285451 0.130269
H106  H     H_    0.691430 0.320931 0.714474 0.129896
H107  H     H_    0.691388 0.320929 0.285490 0.129869
H108  H     H_    0.308571 0.320958 0.714508 0.129893
H109  H     H_    0.808578 0.320955 0.785484 0.130303
H110  H     H_    0.191362 0.320930 0.214518 0.130313
H111  H     H_    0.191403 0.320928 0.785494 0.130009
H112  H     H_    0.808590 0.320957 0.214524 0.130009
H113  H     H_    0.667086 0.778214 0.248730 0.130275
H114  H     H_    0.332922 0.778261 0.751279 0.130270
H115  H     H_    0.332915 0.778267 0.248767 0.130296
H116  H     H_    0.667071 0.778220 0.751248 0.130255
H117  H     H_    0.167069 0.778215 0.748705 0.130123
H118  H     H_    0.832942 0.778264 0.251225 0.130148
H119  H     H_    0.832926 0.778266 0.748763 0.130140
H120  H     H_    0.167060 0.778219 0.251229 0.130113
H121  H     H_    0.167081 0.278214 0.248723 0.130340
H122  H     H_    0.832933 0.278261 0.751293 0.130304
H123  H     H_    0.832921 0.278266 0.248760 0.130392
H124  H     H_    0.167064 0.278221 0.751263 0.130286
H125  H     H_    0.667082 0.278217 0.748667 0.130120
H126  H     H_    0.332937 0.278263 0.251243 0.130158
H127  H     H_    0.332916 0.278264 0.748729 0.130133
H128  H     H_    0.667067 0.278220 0.251250 0.130113
H129  H     H_    0.667095 0.721682 0.248740 0.130070
H130  H     H_    0.332928 0.721729 0.751290 0.129997
H131  H     H_    0.332925 0.721735 0.248764 0.130050
H132  H     H_    0.667074 0.721688 0.751229 0.130030
H133  H     H_    0.167074 0.721683 0.748719 0.129887
H134  H     H_    0.832953 0.721732 0.251230 0.129853
H135  H     H_    0.832934 0.721734 0.748758 0.129899
H136  H     H_    0.167064 0.721687 0.251213 0.129930
H137  H     H_    0.167089 0.221682 0.248733 0.130164
H138  H     H_    0.832937 0.221728 0.751305 0.130022
H139  H     H_    0.832929 0.221734 0.248756 0.130115
H140  H     H_    0.167064 0.221689 0.751242 0.130061
H141  H     H_    0.667084 0.221685 0.748684 0.129883
H142  H     H_    0.332946 0.221731 0.251250 0.129850
H143  H     H_    0.332921 0.221732 0.748721 0.129897
H144  H     H_    0.667070 0.221688 0.251232 0.129934
H145  H     H_    0.808731 0.679016 0.285418 0.129573
H146  H     H_    0.191360 0.678985 0.714545 0.129675
H147  H     H_    0.191247 0.678986 0.285380 0.130099
H148  H     H_    0.808752 0.679013 0.714593 0.129743
H149  H     H_    0.308653 0.679014 0.785469 0.129803
H150  H     H_    0.691332 0.678983 0.214557 0.129793
H151  H     H_    0.691266 0.678986 0.785390 0.130203
H152  H     H_    0.308756 0.679013 0.214597 0.130211
H153  H     H_    0.308704 0.179015 0.285435 0.129684
H154  H     H_    0.691389 0.178984 0.714525 0.129696
H155  H     H_    0.691263 0.178985 0.285391 0.130149
H156  H     H_    0.308703 0.179012 0.714560 0.129727
H157  H     H_    0.808637 0.179015 0.785476 0.129802
H158  H     H_    0.191343 0.178984 0.214553 0.129794
H159  H     H_    0.191289 0.178987 0.785401 0.130205
H160  H     H_    0.808747 0.179014 0.214593 0.130214
H161  H     H_    0.809115 0.622554 0.285261 0.156754
H162  H     H_    0.190969 0.622526 0.714707 0.157513
H163  H     H_    0.190855 0.622528 0.285217 0.158733
H164  H     H_    0.809149 0.622552 0.714762 0.157530
H165  H     H_    0.309046 0.622552 0.785305 0.157533
H166  H     H_    0.690930 0.622525 0.214729 0.157534
H167  H     H_    0.690868 0.622529 0.785225 0.158790
H168  H     H_    0.309158 0.622553 0.214768 0.158814
H169  H     H_    0.309092 0.122553 0.285277 0.156883
H170  H     H_    0.690993 0.122525 0.714691 0.157564
H171  H     H_    0.690868 0.122528 0.285225 0.158744
H172  H     H_    0.309105 0.122551 0.714734 0.157490
H173  H     H_    0.809027 0.122553 0.785316 0.157536
H174  H     H_    0.190944 0.122526 0.214721 0.157539
H175  H     H_    0.190897 0.122530 0.785241 0.158792
H176  H     H_    0.809147 0.122553 0.214762 0.158820
H177  H     H_    0.953002 0.464270 0.214018 0.177241
H178  H     H_    0.046944 0.464089 0.785807 0.177197
H179  H     H_    0.046934 0.464266 0.214013 0.176751
H180  H     H_    0.953012 0.464092 0.785807 0.176753
H181  H     H_    0.453002 0.464204 0.714083 0.177004
H182  H     H_    0.546944 0.464218 0.285937 0.176270
H183  H     H_    0.546934 0.464200 0.714079 0.175805
H184  H     H_    0.453012 0.464220 0.285935 0.176474
H185  H     H_    0.453002 0.964215 0.214072 0.177235
H186  H     H_    0.546944 0.964072 0.785791 0.177193
H187  H     H_    0.546934 0.964212 0.214067 0.176746
H188  H     H_    0.453012 0.964075 0.785790 0.176750
H189  H     H_    0.953002 0.964210 0.714077 0.177002
H190  H     H_    0.046944 0.964236 0.285955 0.176210
H191  H     H_    0.046934 0.964206 0.714073 0.175788
H192  H     H_    0.953012 0.964238 0.285953 0.176395
H193  H     H_    0.546711 0.034132 0.315300 0.206148
H194  H     H_    0.453346 0.034420 0.684834 0.206184
H195  H     H_    0.453380 0.034145 0.315303 0.207040
H196  H     H_    0.546680 0.034421 0.684836 0.209132
H197  H     H_    0.046713 0.034139 0.815298 0.206564
H198  H     H_    0.953350 0.034097 0.184680 0.206598
H199  H     H_    0.953382 0.034152 0.815301 0.208862
H200  H     H_    0.046680 0.034104 0.184685 0.208815
H201  H     H_    0.046710 0.534024 0.315353 0.206214
H202  H     H_    0.953346 0.534386 0.684818 0.206075
H203  H     H_    0.953379 0.534035 0.315355 0.207166
H204  H     H_    0.046680 0.534388 0.684819 0.209071
H205  H     H_    0.546713 0.534147 0.815295 0.206564
H206  H     H_    0.453349 0.534125 0.184692 0.206622
H207  H     H_    0.453382 0.534160 0.815297 0.208861
H208  H     H_    0.546679 0.534131 0.184696 0.208849
H209  H     H_    0.546737 0.064963 0.284484 0.206841
H210  H     H_    0.453371 0.065102 0.715799 0.206297
H211  H     H_    0.453402 0.064973 0.284485 0.206232
H212  H     H_    0.546702 0.065103 0.715800 0.206068
H213  H     H_    0.046738 0.064964 0.784477 0.207071
H214  H     H_    0.953364 0.064949 0.215476 0.207045
H215  H     H_    0.953404 0.064976 0.784478 0.206437
H216  H     H_    0.046699 0.064954 0.215481 0.206551
H217  H     H_    0.046735 0.564911 0.284593 0.206854
H218  H     H_    0.953370 0.565086 0.715765 0.206334
H219  H     H_    0.953399 0.564920 0.284595 0.206206
H220  H     H_    0.046702 0.565087 0.715767 0.206076
H221  H     H_    0.546738 0.564968 0.784468 0.207064
H222  H     H_    0.453365 0.564961 0.215503 0.206993
H223  H     H_    0.453404 0.564979 0.784469 0.206432
H224  H     H_    0.546699 0.564965 0.215508 0.206469
O1    O     O_3   0.750000 0.499980 0.250000 -0.471491
O2    O     O_3   0.250000 0.499980 0.750000 -0.472774
O3    O     O_3   0.250000 0.499980 0.250000 -0.473352
O4    O     O_3   0.750000 0.499980 0.750000 -0.471811
O5    O     O_3   0.250000 0.999980 0.250000 -0.471471
O6    O     O_3   0.750000 0.999980 0.750000 -0.472810
O7    O     O_3   0.750000 0.999980 0.250000 -0.473308
O8    O     O_3   0.250000 0.999980 0.750000 -0.471815
O9    O     O_R   0.634200 0.518160 0.231810 -0.641856
O10   O     O_R   0.365800 0.518160 0.768190 -0.642077
O11   O     O_R   0.365800 0.518160 0.231810 -0.643539
O12   O     O_R   0.634200 0.518160 0.768190 -0.643467
O13   O     O_R   0.134200 0.518160 0.731810 -0.642060
O14   O     O_R   0.865800 0.518160 0.268190 -0.642921
O15   O     O_R   0.865800 0.518160 0.731810 -0.643661
O16   O     O_R   0.134200 0.518160 0.268190 -0.643599
O17   O     O_R   0.134200 0.018160 0.231810 -0.641831
O18   O     O_R   0.865800 0.018160 0.768190 -0.642074
O19   O     O_R   0.865800 0.018160 0.231810 -0.643524
O20   O     O_R   0.134200 0.018160 0.768190 -0.643454
O21   O     O_R   0.634200 0.018160 0.731810 -0.642057
O22   O     O_R   0.365800 0.018160 0.268190 -0.643108
O23   O     O_R   0.365800 0.018160 0.731810 -0.643653
O24   O     O_R   0.634200 0.018160 0.268190 -0.643637
O25   O     O_R   0.719650 0.481800 0.319270 -0.645822
O26   O     O_R   0.280350 0.481800 0.680730 -0.641342
O27   O     O_R   0.280350 0.481800 0.319270 -0.640993
O28   O     O_R   0.719650 0.481800 0.680730 -0.645732
O29   O     O_R   0.219650 0.481800 0.819270 -0.641537
O30   O     O_R   0.780350 0.481800 0.180730 -0.641677
O31   O     O_R   0.780350 0.481800 0.819270 -0.640960
O32   O     O_R   0.219650 0.481800 0.180730 -0.640823
O33   O     O_R   0.219650 0.981800 0.319270 -0.646035
O34   O     O_R   0.780350 0.981800 0.680730 -0.641216
O35   O     O_R   0.780350 0.981800 0.319270 -0.641188
O36   O     O_R   0.219650 0.981800 0.680730 -0.646095
O37   O     O_R   0.719650 0.981800 0.819270 -0.641530
O38   O     O_R   0.280350 0.981800 0.180730 -0.641638
O39   O     O_R   0.280350 0.981800 0.819270 -0.640954
O40   O     O_R   0.719650 0.981800 0.180730 -0.640820
O41   O     O_R   0.719660 0.430680 0.268150 -0.647530
O42   O     O_R   0.280340 0.430680 0.731850 -0.647461
O43   O     O_R   0.280340 0.430680 0.268150 -0.645987
O44   O     O_R   0.719660 0.430680 0.731850 -0.646911
O45   O     O_R   0.219660 0.430680 0.768150 -0.647496
O46   O     O_R   0.780340 0.430680 0.231850 -0.647436
O47   O     O_R   0.780340 0.430680 0.768150 -0.645750
O48   O     O_R   0.219660 0.430680 0.231850 -0.645991
O49   O     O_R   0.219660 0.930680 0.268150 -0.647757
O50   O     O_R   0.780340 0.930680 0.731850 -0.647435
O51   O     O_R   0.780340 0.930680 0.268150 -0.646008
O52   O     O_R   0.219660 0.930680 0.731850 -0.646873
O53   O     O_R   0.719660 0.930680 0.768150 -0.647505
O54   O     O_R   0.280340 0.930680 0.231850 -0.647439
O55   O     O_R   0.280340 0.930680 0.768150 -0.645751
O56   O     O_R   0.719660 0.930680 0.231850 -0.645998
O57   O     O_R   0.719620 0.569280 0.231810 -0.648153
O58   O     O_R   0.280380 0.569280 0.768190 -0.648214
O59   O     O_R   0.280380 0.569280 0.231810 -0.646300
O60   O     O_R   0.719620 0.569280 0.768190 -0.646036
O61   O     O_R   0.219620 0.569280 0.731810 -0.648180
O62   O     O_R   0.780380 0.569280 0.268190 -0.648245
O63   O     O_R   0.780380 0.569280 0.731810 -0.647380
O64   O     O_R   0.219620 0.569280 0.268190 -0.646289
O65   O     O_R   0.219620 0.069280 0.231810 -0.648159
O66   O     O_R   0.780380 0.069280 0.768190 -0.648218
O67   O     O_R   0.780380 0.069280 0.231810 -0.646292
O68   O     O_R   0.219620 0.069280 0.768190 -0.646041
O69   O     O_R   0.719620 0.069280 0.731810 -0.648140
O70   O     O_R   0.280380 0.069280 0.268190 -0.647985
O71   O     O_R   0.280380 0.069280 0.731810 -0.647390
O72   O     O_R   0.719620 0.069280 0.268190 -0.646274
O73   O     O_R   0.780360 0.518130 0.319270 -0.646867
O74   O     O_R   0.219640 0.518130 0.680730 -0.640693
O75   O     O_R   0.219640 0.518130 0.319270 -0.639900
O76   O     O_R   0.780360 0.518130 0.680730 -0.646756
O77   O     O_R   0.280360 0.518130 0.819270 -0.640901
O78   O     O_R   0.719640 0.518130 0.180730 -0.641021
O79   O     O_R   0.719640 0.518130 0.819270 -0.639842
O80   O     O_R   0.280360 0.518130 0.180730 -0.639716
O81   O     O_R   0.280360 0.018130 0.319270 -0.646791
O82   O     O_R   0.719640 0.018130 0.680730 -0.640520
O83   O     O_R   0.719640 0.018130 0.319270 -0.640020
O84   O     O_R   0.280360 0.018130 0.680730 -0.646364
O85   O     O_R   0.780360 0.018130 0.819270 -0.640898
O86   O     O_R   0.219640 0.018130 0.180730 -0.641057
O87   O     O_R   0.219640 0.018130 0.819270 -0.639842
O88   O     O_R   0.780360 0.018130 0.180730 -0.639724
O89   O     O_R   0.634220 0.481810 0.268150 -0.649170
O90   O     O_R   0.365780 0.481810 0.731850 -0.648234
O91   O     O_R   0.365780 0.481810 0.268150 -0.649599
O92   O     O_R   0.634220 0.481810 0.731850 -0.649886
O93   O     O_R   0.134220 0.481810 0.768150 -0.648234
O94   O     O_R   0.865780 0.481810 0.231850 -0.648005
O95   O     O_R   0.865780 0.481810 0.768150 -0.649431
O96   O     O_R   0.134220 0.481810 0.231850 -0.649508
O97   O     O_R   0.134220 0.981810 0.268150 -0.649043
O98   O     O_R   0.865780 0.981810 0.731850 -0.648240
O99   O     O_R   0.865780 0.981810 0.268150 -0.649639
O100  O     O_R   0.134220 0.981810 0.731850 -0.649919
O101  O     O_R   0.634220 0.981810 0.768150 -0.648243
O102  O     O_R   0.365780 0.981810 0.231850 -0.648025
O103  O     O_R   0.365780 0.981810 0.768150 -0.649443
O104  O     O_R   0.634220 0.981810 0.231850 -0.649512
Zn1   Zn    Zn3+2 0.793370 0.525930 0.275930 0.960555
Zn2   Zn    Zn3+2 0.206630 0.525930 0.724070 0.962207
Zn3   Zn    Zn3+2 0.206630 0.525930 0.275930 0.962907
Zn4   Zn    Zn3+2 0.793370 0.525930 0.724070 0.960779
Zn5   Zn    Zn3+2 0.293370 0.525930 0.775930 0.962145
Zn6   Zn    Zn3+2 0.706630 0.525930 0.224070 0.962909
Zn7   Zn    Zn3+2 0.706630 0.525930 0.775930 0.963899
Zn8   Zn    Zn3+2 0.293370 0.525930 0.224070 0.963118
Zn9   Zn    Zn3+2 0.293370 0.025930 0.275930 0.960679
Zn10  Zn    Zn3+2 0.706630 0.025930 0.724070 0.962272
Zn11  Zn    Zn3+2 0.706630 0.025930 0.275930 0.962882
Zn12  Zn    Zn3+2 0.293370 0.025930 0.724070 0.960855
Zn13  Zn    Zn3+2 0.793370 0.025930 0.775930 0.962126
Zn14  Zn    Zn3+2 0.206630 0.025930 0.224070 0.963178
Zn15  Zn    Zn3+2 0.206630 0.025930 0.775930 0.963901
Zn16  Zn    Zn3+2 0.793370 0.025930 0.224070 0.963171
Zn17  Zn    Zn3+2 0.706640 0.474020 0.275940 0.962156
Zn18  Zn    Zn3+2 0.293360 0.474020 0.724060 0.963175
Zn19  Zn    Zn3+2 0.293360 0.474020 0.275940 0.963181
Zn20  Zn    Zn3+2 0.706640 0.474020 0.724060 0.961767
Zn21  Zn    Zn3+2 0.206640 0.474020 0.775940 0.963159
Zn22  Zn    Zn3+2 0.793360 0.474020 0.224060 0.963946
Zn23  Zn    Zn3+2 0.793360 0.474020 0.775940 0.964377
Zn24  Zn    Zn3+2 0.206640 0.474020 0.224060 0.963417
Zn25  Zn    Zn3+2 0.206640 0.974020 0.275940 0.961955
Zn26  Zn    Zn3+2 0.793360 0.974020 0.724060 0.963187
Zn27  Zn    Zn3+2 0.793360 0.974020 0.275940 0.963077
Zn28  Zn    Zn3+2 0.206640 0.974020 0.724060 0.961671
Zn29  Zn    Zn3+2 0.706640 0.974020 0.775940 0.963123
Zn30  Zn    Zn3+2 0.293360 0.974020 0.224060 0.963682
Zn31  Zn    Zn3+2 0.293360 0.974020 0.775940 0.964362
Zn32  Zn    Zn3+2 0.706640 0.974020 0.224060 0.963410
N1    N     N_2   0.675316 0.540302 0.966587 -0.299917
H225  H     H_    0.683646 0.563574 0.968115 0.237312
C401  C     C_3   0.621028 0.532897 0.967417 -0.832355
H226  H     H_    0.604810 0.535420 0.943723 0.247527
H227  H     H_    0.600421 0.549128 0.983032 0.238480
H228  H     H_    0.614256 0.508739 0.975390 0.236432
N2    N     N_2   0.324730 0.540309 0.033413 -0.299918
H229  H     H_    0.316425 0.563580 0.031885 0.237314
C402  C     C_3   0.379010 0.532909 0.032584 -0.832350
H230  H     H_    0.395230 0.535434 0.056277 0.247529
H231  H     H_    0.399634 0.549143 0.016969 0.238480
H232  H     H_    0.385757 0.508752 0.024611 0.236431
N3    N     N_2   0.325850 0.539507 0.966606 -0.300326
H233  H     H_    0.363366 0.532060 0.968078 0.236469
C403  C     C_3   0.319390 0.572823 0.967437 -0.830894
H234  H     H_    0.324977 0.582256 0.943710 0.247632
H235  H     H_    0.348543 0.583479 0.982917 0.238516
H236  H     H_    0.280353 0.579431 0.975583 0.236606
N4    N     N_2   0.674195 0.539501 0.033394 -0.300326
H237  H     H_    0.636672 0.532050 0.031922 0.236470
C404  C     C_3   0.680691 0.572817 0.032563 -0.830896
H238  H     H_    0.675113 0.582249 0.056290 0.247631
H239  H     H_    0.651549 0.583470 0.017082 0.238517
H240  H     H_    0.719735 0.579429 0.024418 0.236606
N5    N     N_2   0.177102 0.541393 0.466585 -0.299971
H241  H     H_    0.186249 0.564553 0.468101 0.237222
C405  C     C_3   0.122568 0.534682 0.467411 -0.832189
H242  H     H_    0.106460 0.537376 0.443709 0.247343
H243  H     H_    0.102527 0.551195 0.482997 0.238485
H244  H     H_    0.114944 0.510628 0.475419 0.236623
N6    N     N_2   0.796652 0.445973 0.532669 -0.311199
H245  H     H_    0.817098 0.452123 0.552230 0.236174
C406  C     C_3   0.762172 0.420270 0.538256 -0.819471
H246  H     H_    0.784512 0.400164 0.546926 0.246260
H247  H     H_    0.742130 0.413272 0.516601 0.235904
H248  H     H_    0.733126 0.426546 0.556001 0.242984
N7    N     N_2   0.800321 0.447851 0.466616 -0.311904
H249  H     H_    0.796853 0.426086 0.476138 0.246599
C407  C     C_3   0.852640 0.454738 0.457652 -0.774284
H250  H     H_    0.867907 0.435560 0.443178 0.236879
H251  H     H_    0.877198 0.457236 0.478619 0.238923
H252  H     H_    0.854337 0.476389 0.443779 0.249673
N8    N     N_2   0.175936 0.540623 0.533391 -0.300314
H253  H     H_    0.138162 0.533654 0.531907 0.236588
C408  C     C_3   0.183602 0.573848 0.532555 -0.831380
H254  H     H_    0.178297 0.583358 0.556274 0.247545
H255  H     H_    0.154880 0.584865 0.517045 0.238498
H256  H     H_    0.222889 0.579957 0.524444 0.236738
N9    N     N_2   0.175315 0.040302 0.966587 -0.299918
H257  H     H_    0.183645 0.063574 0.968115 0.237312
C409  C     C_3   0.121028 0.032896 0.967417 -0.832352
H258  H     H_    0.104810 0.035419 0.943723 0.247527
H259  H     H_    0.100421 0.049128 0.983032 0.238480
H260  H     H_    0.114256 0.008739 0.975390 0.236431
N10   N     N_2   0.824730 0.040309 0.033413 -0.299917
H261  H     H_    0.816426 0.063580 0.031885 0.237314
C410  C     C_3   0.879010 0.032909 0.032584 -0.832347
H262  H     H_    0.895231 0.035434 0.056277 0.247530
H263  H     H_    0.899635 0.049142 0.016969 0.238480
H264  H     H_    0.885757 0.008752 0.024611 0.236431
N11   N     N_2   0.825851 0.039507 0.966606 -0.300326
H265  H     H_    0.863366 0.032060 0.968078 0.236470
C411  C     C_3   0.819390 0.072823 0.967437 -0.830893
H266  H     H_    0.824978 0.082255 0.943710 0.247633
H267  H     H_    0.848544 0.083479 0.982917 0.238518
H268  H     H_    0.780354 0.079431 0.975583 0.236606
N12   N     N_2   0.174195 0.039500 0.033394 -0.300327
H269  H     H_    0.136672 0.032049 0.031922 0.236470
C412  C     C_3   0.180690 0.072817 0.032563 -0.830894
H270  H     H_    0.175112 0.082249 0.056290 0.247631
H271  H     H_    0.151548 0.083469 0.017082 0.238518
H272  H     H_    0.219734 0.079429 0.024418 0.236605
N13   N     N_2   0.678660 0.042347 0.466589 -0.300001
H273  H     H_    0.688545 0.065398 0.468097 0.237219
C413  C     C_3   0.623922 0.036269 0.467411 -0.831658
H274  H     H_    0.607915 0.039123 0.443703 0.247395
H275  H     H_    0.604403 0.053029 0.482975 0.238506
H276  H     H_    0.615528 0.012317 0.475445 0.236606
N14   N     N_2   0.204958 0.054286 0.532677 -0.310949
H277  H     H_    0.184437 0.048324 0.552267 0.236602
C414  C     C_3   0.239969 0.079743 0.538186 -0.819872
H278  H     H_    0.218035 0.100064 0.546728 0.246458
H279  H     H_    0.260249 0.086480 0.516529 0.235772
H280  H     H_    0.268806 0.073329 0.556005 0.242823
N15   N     N_2   0.201199 0.052430 0.466627 -0.312321
H281  H     H_    0.205184 0.074168 0.476135 0.246548
C415  C     C_3   0.148718 0.045981 0.457686 -0.772026
H282  H     H_    0.133885 0.065276 0.443204 0.236981
H283  H     H_    0.124129 0.043706 0.478664 0.239123
H284  H     H_    0.146500 0.024337 0.443828 0.249914
N16   N     N_2   0.677441 0.041591 0.533394 -0.300354
H285  H     H_    0.639454 0.035056 0.531899 0.236705
C416  C     C_3   0.686152 0.074724 0.532560 -0.831196
H286  H     H_    0.681101 0.084296 0.556274 0.247538
H287  H     H_    0.657813 0.086066 0.517029 0.238525
H288  H     H_    0.725642 0.080381 0.524478 0.236789

loop_
_geom_bond_atom_site_label_1
_geom_bond_atom_site_label_2
_ccdc_geom_bond_type
C73   H169  S    
O84   Zn12  S    
C51   H147  S    
C251  C267  A    
C192  H32   S    
C338  C354  A    
O63   Zn4   S    
C177  H17   S    
N8    H253  S    
C356  C372  A    
C357  H101  S    
C234  C250  A    
N2    C402  S    
C388  H116  S    
C179  C195  A    
C281  C284  A    
C179  H19   S    
C352  C368  A    
O4    Zn23  S    
C282  C283  A    
C177  C193  A    
C188  C268  A    
C163  H211  S    
C189  C269  A    
C190  C270  A    
C41   C369  S    
C327  O56   A    
C172  H220  S    
C321  O41   A    
C4    O92   A    
C15   O23   A    
C28   C40   A    
O6    Zn13  S    
C289  C305  A    
C182  C262  A    
C71   H167  S    
C284  C297  A    
C273  C276  A    
C240  H64   S    
C83   C331  S    
C274  C275  A    
C363  C375  A    
C28   H140  S    
O52   Zn28  S    
C29   H141  S    
C178  C258  A    
C155  C269  S    
C102  C176  S    
C190  C206  A    
C31   H143  S    
C56   C72   A    
C100  C116  A    
C17   H129  S    
C22   H134  S    
C235  H59   S    
C227  C243  A    
C234  H58   S    
C10   C125  S    
C32   H144  S    
O8    Zn12  S    
C12   O100  A    
C230  C246  A    
C144  H192  S    
C334  O69   A    
C328  C378  S    
C236  H60   S    
C151  O79   A    
C117  C133  A    
N12   H269  S    
C101  C103  A    
C14   C121  S    
C343  H7    S    
C404  H238  S    
C158  O86   A    
C59   C95   A    
C357  C370  A    
C114  C130  A    
C102  C118  A    
C153  C271  S    
C203  C219  A    
C108  C124  A    
C344  C379  A    
C154  C272  S    
C366  C373  A    
C181  H21   S    
C161  C163  S    
C2    C117  S    
C42   C370  S    
C287  N15   S    
C162  C164  S    
O76   Zn4   S    
C315  H91   S    
C158  O38   A    
C290  C306  A    
C224  C301  S    
C285  C304  A    
C100  C170  S    
C413  H274  S    
O99   Zn27  S    
O3    Zn8   S    
C403  H234  S    
O21   Zn10  S    
O98   Zn26  S    
C160  O88   A    
C296  C312  A    
C217  C233  A    
C251  H75   S    
C61   C94   A    
C26   C38   A    
C104  C174  S    
C250  H74   S    
O18   Zn13  S    
C314  C315  A    
C165  H197  S    
C63   C96   A    
C70   H166  S    
C131  H179  S    
C318  H94   S    
C221  C237  A    
C130  H178  S    
C136  H184  S    
C218  C299  S    
C317  C320  A    
C201  H41   S    
C409  H258  S    
C398  H126  S    
C191  H31   S    
C55   C92   A    
C350  C381  A    
C347  C363  A    
C66   C82   A    
C80   H176  S    
C345  H9    S    
N16   H285  S    
C54   C70   A    
C243  H67   S    
O4    Zn20  S    
C119  C135  A    
C306  C307  A    
C407  H252  S    
C341  C378  A    
C67   H163  S    
C150  O78   A    
C128  C144  A    
C218  C234  A    
C173  C175  S    
C327  O51   A    
C245  H69   S    
C42   C389  A    
C339  H3    S    
C174  H222  S    
C352  H16   S    
O24   Zn11  S    
C238  C254  A    
C337  H1    S    
C307  H83   S    
C59   H155  S    
O26   Zn18  S    
C50   H146  S    
O97   Zn25  S    
C198  C214  A    
O79   Zn7   S    
C213  C229  A    
C46   C374  S    
C348  H12   S    
C134  H182  S    
C336  O71   A    
C403  H235  S    
C227  H51   S    
C175  H207  S    
C325  O54   A    
O37   Zn29  S    
C162  H194  S    
C43   C371  S    
C161  H193  S    
C231  C247  A    
C314  H90   S    
O71   Zn12  S    
C415  H284  S    
C313  H89   S    
C172  H204  S    
O70   Zn9   S    
C247  H71   S    
C183  H23   S    
O69   Zn10  S    
O104  Zn32  S    
C159  O39   A    
O11   Zn8   S    
C221  C304  S    
C84   C332  S    
C206  H46   S    
C57   C93   A    
C150  O30   A    
C228  H52   S    
C65   H161  S    
N1    C401  S    
C358  C369  A    
C223  C239  A    
C331  O59   A    
N4    C404  S    
C26   C394  A    
C337  C353  A    
C52   H148  S    
C365  H109  S    
C58   H154  S    
C308  H84   S    
N6    C406  S    
C19   C387  A    
O40   Zn32  S    
C98   C114  A    
C17   C385  A    
C196  C212  A    
C156  C270  S    
C226  H50   S    
O92   Zn20  S    
C410  H262  S    
C404  H240  S    
C5    O13   A    
C233  H57   S    
C133  C135  A    
O47   Zn23  S    
C278  N6    S    
C19   C35   A    
O88   Zn16  S    
O72   Zn11  S    
C148  C262  S    
O67   Zn16  S    
C249  C265  A    
C47   C400  A    
C176  H224  S    
C55   C71   A    
C48   C399  A    
C309  H85   S    
C248  C264  A    
C67   C83   A    
C21   H133  S    
C275  N3    S    
C173  H205  S    
C288  C301  A    
C364  C376  A    
C244  C260  A    
C255  H79   S    
C181  C197  A    
O96   Zn24  S    
C45   C393  A    
C333  O70   A    
C328  O52   A    
O6    Zn29  S    
C185  C265  A    
C42   C386  A    
C345  C381  A    
O5    Zn30  S    
C154  O82   A    
C167  H215  S    
C105  C107  A    
C312  H88   S    
C347  C383  A    
C302  C318  A    
C199  C215  A    
C321  C383  S    
C147  O27   A    
N8    C408  S    
C211  C290  S    
C300  C316  A    
C145  O25   A    
C109  C111  A    
C319  H95   S    
N3    H233  S    
C238  H62   S    
C354  C370  A    
C194  C210  A    
C157  O37   A    
C188  H28   S    
C199  H39   S    
C189  H29   S    
C14   O102  A    
C8    O96   A    
C402  H230  S    
O8    Zn28  S    
C57   C73   A    
C16   O104  A    
C69   C82   A    
C311  H87   S    
C184  C264  A    
C196  H36   S    
C332  O63   A    
C61   C77   A    
N13   C413  S    
O64   Zn3   S    
C277  N5    S    
C29   C38   A    
C153  O33   A    
C74   H170  S    
C111  C165  S    
O43   Zn19  S    
C274  N2    S    
C147  C261  S    
C220  C297  S    
C30   C398  A    
C23   C391  A    
C98   C172  S    
C159  O87   A    
C11   O99   A    
C165  C167  S    
C171  H219  S    
C362  C374  A    
C166  C168  S    
N9    C409  S    
C106  C122  A    
C236  C252  A    
C18   C34   A    
C348  C384  A    
O8    Zn15  S    
C3    O11   A    
C282  C299  A    
C233  C249  A    
C173  H221  S    
N11   C411  S    
C4    O12   A    
N12   C412  S    
C6    O94   A    
C15   C124  S    
C125  C141  A    
C37   C93   S    
C170  C172  S    
O54   Zn30  S    
C219  C235  A    
C405  H244  S    
O53   Zn29  S    
C15   O103  A    
C97   C99   A    
C47   C395  A    
N14   C414  S    
C179  C259  A    
C401  H228  S    
C191  C207  A    
O15   Zn4   S    
C147  O75   A    
C406  H246  S    
C5    O93   A    
C188  C204  A    
C352  C383  A    
C337  C377  A    
C367  C376  A    
C232  C248  A    
C54   C89   A    
C212  C228  A    
C7    C116  S    
C102  C104  A    
C254  H78   S    
C63   H159  S    
C408  H254  S    
C33   C89   S    
C248  H72   S    
O58   Zn5   S    
C409  H259  S    
C49   H145  S    
O57   Zn6   S    
C116  C132  A    
C410  H264  S    
C151  O31   A    
C168  H200  S    
C105  C163  S    
C346  C382  A    
N15   C415  S    
O33   Zn25  S    
C244  H68   S    
O62   Zn1   S    
C51   C67   A    
C56   H152  S    
C62   H158  S    
C349  H13   S    
O61   Zn2   S    
C224  C240  A    
C39   C95   S    
C390  H118  S    
C416  H287  S    
C22   C390  A    
O2    Zn21  S    
C285  N13   S    
C276  C289  A    
C282  N10   S    
C78   C85   A    
C75   C87   A    
O1    Zn22  S    
O56   Zn32  S    
C223  C302  S    
C110  C126  A    
C23   C36   A    
C161  H209  S    
C411  H267  S    
C406  H247  S    
C209  C292  S    
C175  H223  S    
C62   C93   A    
C168  H216  S    
C225  H49   S    
O20   Zn15  S    
C324  C382  S    
C341  C357  A    
C151  C257  S    
O28   Zn20  S    
C169  C171  S    
C332  O60   A    
C150  C260  S    
C81   C329  S    
N16   C416  S    
C78   H174  S    
C13   O21   A    
C62   C78   A    
C202  H42   S    
C275  C290  A    
C246  C262  A    
C228  C244  A    
C283  N11   S    
C208  C224  A    
C324  O47   A    
C192  C272  A    
C57   H153  S    
C55   H151  S    
C46   C394  A    
C402  H232  S    
C317  H93   S    
C362  H106  S    
C44   C391  A    
C47   C375  S    
C85   C333  S    
C351  C367  A    
C194  H34   S    
C186  C266  A    
C106  C108  A    
C206  C222  A    
C276  N4    S    
C43   C387  A    
C41   C390  A    
N5    C405  S    
C174  C176  S    
C322  C384  S    
C8    O16   A    
C413  H275  S    
C135  H183  S    
C412  H270  S    
C320  H96   S    
C341  H5    S    
C354  H98   S    
C156  O36   A    
C36   C92   S    
C152  O80   A    
C330  O61   A    
C350  H14   S    
C216  C293  S    
C414  H279  S    
C277  C280  A    
O36   Zn28  S    
C23   H135  S    
C278  C279  A    
C353  H97   S    
C154  O34   A    
O25   Zn17  S    
C338  C378  A    
C143  H191  S    
C212  C289  S    
C400  H128  S    
C342  C358  A    
O19   Zn16  S    
C129  H177  S    
O34   Zn26  S    
O68   Zn15  S    
O103  Zn31  S    
O75   Zn3   S    
C242  C258  A    
C64   C95   A    
C405  H242  S    
C204  H44   S    
C107  C123  A    
C340  C380  A    
C298  C314  A    
O3    Zn19  S    
C286  N14   S    
C127  C143  A    
C61   H157  S    
C401  H226  S    
O2    Zn18  S    
C79   H175  S    
N15   H281  S    
C406  H248  S    
C389  H117  S    
C178  C194  A    
C58   C74   A    
C137  H185  S    
C364  H108  S    
C187  H27   S    
C207  H47   S    
C237  C253  A    
C184  C200  A    
C408  H256  S    
C185  H25   S    
C323  C381  S    
C99   C115  A    
C45   C398  A    
C328  O55   A    
C141  H189  S    
C416  H288  S    
C53   C69   A    
C325  C379  S    
C25   H137  S    
C187  C203  A    
C3    O91   A    
C31   C40   A    
C72   H168  S    
C414  H278  S    
C32   C39   A    
C185  C201  A    
C82   C330  S    
C246  H70   S    
O87   Zn15  S    
C160  C266  S    
C149  C259  S    
C186  C202  A    
C51   C91   A    
C213  C296  S    
C252  C268  A    
C56   C91   A    
C171  H203  S    
C214  C295  S    
C107  C161  S    
C9    O97   A    
C324  O44   A    
C287  C302  A    
C50   C90   A    
C145  C263  S    
O29   Zn21  S    
N6    H245  S    
C407  H251  S    
C4    C119  S    
C146  C264  S    
O8    Zn31  S    
C106  C164  S    
C44   C388  A    
O48   Zn24  S    
O49   Zn25  S    
C174  H206  S    
O95   Zn23  S    
C293  C309  A    
C392  H120  S    
C184  H24   S    
C340  H4    S    
C245  C261  A    
C41   C385  A    
C64   C80   A    
C164  H212  S    
C209  C225  A    
C40   C96   S    
C7    O15   A    
C273  N1    S    
C79   C88   A    
C344  C360  A    
C146  O74   A    
C365  C374  A    
C35   C91   S    
C367  H111  S    
C330  O58   A    
C280  N8    S    
C149  O29   A    
C68   C84   A    
O31   Zn23  S    
O80   Zn8   S    
C415  H283  S    
C326  C380  S    
C207  C223  A    
C63   C79   A    
C21   C34   A    
C14   O22   A    
C17   C33   A    
C416  H286  S    
C249  H73   S    
C126  C142  A    
C322  O45   A    
C75   H171  S    
C30   C37   A    
C120  C136  A    
C141  C143  A    
C340  C356  A    
C412  H272  S    
C130  C132  A    
O91   Zn19  S    
O90   Zn18  S    
C54   H150  S    
C208  H48   S    
C286  C303  A    
O89   Zn17  S    
N10   H261  S    
O35   Zn27  S    
O5    Zn14  S    
C280  C293  A    
C112  C166  S    
O42   Zn18  S    
C342  C377  A    
C412  H271  S    
O41   Zn17  S    
C48   C376  S    
C243  C259  A    
C165  H213  S    
C122  C138  A    
C49   C65   A    
O7    Zn16  S    
O46   Zn22  S    
C99   C169  S    
C60   C96   A    
C7    O95   A    
C1    O9    A    
C152  O32   A    
C98   C100  A    
C404  H239  S    
C291  C307  A    
C215  C231  A    
C306  H82   S    
C148  O76   A    
C210  C291  S    
C305  H81   S    
C214  C230  A    
C34   C90   S    
C197  C213  A    
C335  O72   A    
C121  C137  A    
C146  O26   A    
C170  H218  S    
C284  N12   S    
C329  O62   A    
O30   Zn22  S    
C288  N16   S    
C310  C311  A    
C156  O84   A    
O50   Zn26  S    
O3    Zn3   S    
C124  C140  A    
C19   H131  S    
C9    C126  S    
O39   Zn31  S    
C197  H37   S    
C11   O19   A    
C167  H199  S    
C53   H149  S    
C252  H76   S    
C9    O17   A    
C178  H18   S    
C394  H122  S    
C222  C303  S    
C253  C269  A    
C160  O40   A    
O83   Zn11  S    
C101  C117  A    
C24   C392  A    
O4    Zn7   S    
C342  H6    S    
C359  C372  A    
C66   H162  S    
C26   H138  S    
O81   Zn9   S    
N14   H277  S    
N7    C407  S    
O60   Zn7   S    
C327  C377  S    
C162  H210  S    
C355  C371  A    
C256  H80   S    
C29   C397  A    
C343  C380  A    
C277  C296  A    
C169  H217  S    
C242  H66   S    
C20   C388  A    
O55   Zn31  S    
C278  C295  A    
C326  O50   A    
C21   C389  A    
C60   C76   A    
C180  C196  A    
C46   C397  A    
O77   Zn5   S    
O2    Zn5   S    
C229  H53   S    
O1    Zn6   S    
C112  C128  A    
C72   C83   A    
C304  C320  A    
C210  C226  A    
C297  C313  A    
C415  H282  S    
C180  C260  A    
C152  C258  S    
C181  C261  A    
O100  Zn28  S    
N13   H273  S    
C195  H35   S    
C145  O73   A    
C53   C90   A    
C322  O42   A    
C101  C175  S    
C366  H110  S    
C133  H181  S    
C189  C205  A    
C203  H43   S    
C329  O57   A    
C310  H86   S    
C281  N9    S    
C186  H26   S    
C405  H243  S    
C104  C120  A    
C401  H227  S    
C403  H236  S    
C25   C393  A    
C411  H266  S    
C20   H132  S    
C391  H119  S    
C123  C139  A    
C5    C114  S    
C170  H202  S    
N9    H257  S    
C323  O43   A    
C2    O90   A    
C235  C251  A    
C118  C134  A    
C1    O89   A    
C148  O28   A    
C132  H180  S    
O59   Zn8   S    
O7    Zn11  S    
C12   C127  S    
C255  C271  A    
N11   H265  S    
O6    Zn10  S    
C386  H114  S    
C347  H11   S    
O74   Zn2   S    
O5    Zn9   S    
N1    H225  S    
N7    H249  S    
C113  C129  A    
C182  H22   S    
C153  O81   A    
C399  H127  S    
C279  N7    S    
C155  O35   A    
C301  C317  A    
C16   C123  S    
C166  H198  S    
C285  C288  A    
C385  H113  S    
O78   Zn6   S    
C303  C319  A    
C286  C287  A    
C115  C131  A    
C335  O67   A    
C368  H112  S    
C215  C294  S    
C13   O101  A    
C103  C173  S    
C76   H172  S    
C226  C242  A    
C239  C255  A    
C45   C373  S    
C70   C81   A    
C27   C395  A    
C349  C382  A    
C351  H15   S    
C163  H195  S    
C232  H56   S    
C8    C115  S    
C200  C216  A    
C331  O64   A    
C334  O66   A    
C110  C168  S    
C351  C384  A    
C348  C364  A    
C295  C311  A    
C407  H250  S    
C27   C39   A    
C321  O46   A    
C410  H263  S    
O10   Zn5   S    
C28   C396  A    
O1    Zn17  S    
C204  C220  A    
O9    Zn6   S    
C396  H124  S    
O51   Zn27  S    
C202  C218  A    
C273  C292  A    
C346  H10   S    
C109  C167  S    
C274  C291  A    
C76   C88   A    
C157  O85   A    
C292  C308  A    
O14   Zn1   S    
C299  C315  A    
C25   C37   A    
O13   Zn2   S    
C219  C298  S    
C402  H231  S    
C339  C355  A    
C346  C362  A    
C237  H61   S    
C192  C208  A    
C18   C386  A    
C361  C373  A    
C356  H100  S    
C2    O10   A    
C393  H121  S    
C350  C366  A    
O2    Zn2   S    
C222  C238  A    
O1    Zn1   S    
C338  H2    S    
C68   H164  S    
C180  H20   S    
C110  C112  A    
C140  H188  S    
C31   C399  A    
C43   C392  A    
C157  C267  S    
C316  H92   S    
C32   C400  A    
C24   C35   A    
C158  C268  S    
O23   Zn12  S    
C241  H65   S    
O22   Zn9   S    
C239  H63   S    
C250  C266  A    
C6    O14   A    
O66   Zn13  S    
C166  H214  S    
C69   H165  S    
O65   Zn14  S    
N3    C403  S    
C48   C396  A    
C20   C36   A    
C139  H187  S    
C176  H208  S    
C360  H104  S    
C241  C257  A    
C108  C162  S    
O17   Zn14  S    
C254  C270  A    
C183  C199  A    
C345  C361  A    
C18   H130  S    
C200  H40   S    
C358  H102  S    
O93   Zn21  S    
O7    Zn32  S    
C10   O18   A    
C6    C113  S    
C195  C211  A    
C318  C319  A    
C253  H77   S    
C64   H160  S    
C360  C371  A    
C138  H186  S    
C225  C241  A    
C193  C209  A    
C294  C310  A    
O12   Zn7   S    
C187  C267  A    
C87   C335  S    
C305  C308  A    
C205  H45   S    
C38   C94   S    
N5    H241  S    
C105  C121  A    
O102  Zn30  S    
C134  C136  A    
O3    Zn24  S    
C74   C86   A    
O101  Zn29  S    
C50   C66   A    
O16   Zn3   S    
C240  C256  A    
C193  H33   S    
C80   C87   A    
C88   C336  S    
C387  H115  S    
C336  O68   A    
C109  C125  A    
C325  O49   A    
C77   C86   A    
C397  H125  S    
C111  C127  A    
C414  H280  S    
C326  O53   A    
O4    Zn4   S    
C344  H8    S    
C44   C372  S    
C97   C113  A    
N2    H229  S    
C60   H156  S    
C59   C75   A    
C77   H173  S    
C359  H103  S    
C71   C84   A    
C73   C85   A    
C309  C312  A    
O45   Zn21  S    
O38   Zn30  S    
C22   C33   A    
C395  H123  S    
C361  H105  S    
C191  C271  A    
C12   O20   A    
C177  C257  A    
C281  C300  A    
C137  C139  A    
C256  C272  A    
C220  C236  A    
C103  C119  A    
C217  C300  S    
C49   C89   A    
C52   C68   A    
C368  C375  A    
C169  H201  S    
N4    H237  S    
O86   Zn14  S    
C323  O48   A    
C138  C140  A    
O85   Zn13  S    
C159  C265  S    
C279  C294  A    
C149  O77   A    
C247  C263  A    
C97   C171  S    
C363  H107  S    
O82   Zn10  S    
C413  H276  S    
O94   Zn22  S    
C86   C334  S    
C201  C217  A    
C142  H190  S    
C11   C128  S    
C58   C94   A    
O27   Zn19  S    
C229  C245  A    
C408  H255  S    
C313  C316  A    
C27   H139  S    
C13   C122  S    
C164  H196  S    
C283  C298  A    
O73   Zn1   S    
O7    Zn27  S    
O44   Zn20  S    
C183  C263  A    
C205  C221  A    
N10   C410  S    
O32   Zn24  S    
C142  C144  A    
C1    C118  S    
C355  H99   S    
C409  H260  S    
C211  C227  A    
C155  O83   A    
C3    C120  S    
C343  C359  A    
C30   H142  S    
C190  H30   S    
C10   O98   A    
C411  H268  S    
C349  C365  A    
C65   C81   A    
C216  C232  A    
C230  H54   S    
C231  H55   S    
C182  C198  A    
C24   H136  S    
C339  C379  A    
C353  C369  A    
C198  H38   S    
C52   C92   A    
C333  O65   A    
O6    Zn26  S    
O5    Zn25  S    
C129  C131  A    
C16   O24   A    
