data_mof_unit_pretest_865.cif
_audit_creation_date              2012-12-11T15:37:35-0500
_audit_creation_method            fapswitch 2.2
_symmetry_space_group_name_H-M    P1
_symmetry_Int_Tables_number       1
_space_group_crystal_system       triclinic
_cell_length_a                    17.629071
_cell_length_b                    24.772337
_cell_length_c                    14.85012
_cell_angle_alpha                 90.025041
_cell_angle_beta                  126.769344
_cell_angle_gamma                 89.940153
_cell_volume                      5195.0137453

loop_
_atom_site_label
_atom_site_type_symbol
_atom_type_description
_atom_site_fract_x
_atom_site_fract_y
_atom_site_fract_z
_atom_type_partial_charge
C1    C     C_R   0.853793 0.652639 0.909369 0.429902
C2    C     C_3   0.577881 0.500061 0.651727 -0.051423
C3    C     C_3   0.046955 0.008433 0.531769 0.568350
C4    C     C_3   0.903368 0.000871 0.470507 -0.066268
C5    C     C_3   0.077860 0.000042 0.651704 -0.050325
C6    C     C_R   0.735429 0.281694 0.937105 -0.257692
C7    C     C_R   0.316693 0.686418 0.055762 -0.229475
C8    C     C_R   0.317935 0.315924 0.048255 -0.248331
C9    C     C_R   0.735965 0.718760 0.938731 -0.273203
C10   C     C_R   0.235284 0.781811 0.937502 -0.264185
C11   C     C_R   0.816744 0.186483 0.056135 -0.230467
C12   C     C_R   0.818010 0.815889 0.048642 -0.246625
C13   C     C_R   0.178618 0.362541 0.089405 0.544827
C14   C     C_R   0.235889 0.218591 0.939358 -0.271309
C15   C     C_R   0.176827 0.742454 0.928263 0.495514
C16   C     C_R   0.875939 0.227116 0.068977 0.537955
C17   C     C_R   0.876436 0.774842 0.060382 0.496880
C18   C     C_R   0.177764 0.258907 0.927780 0.577670
C19   C     C_R   0.676885 0.242375 0.927797 0.592941
C20   C     C_R   0.375827 0.727089 0.068600 0.534171
C21   C     C_R   0.376305 0.274866 0.059895 0.496591
C22   C     C_R   0.677804 0.759027 0.927240 0.576796
C23   C     C_R   0.218794 0.694174 0.987168 -0.086324
C24   C     C_R   0.176400 0.638940 0.090191 0.512899
C25   C     C_R   0.833505 0.274170 0.004718 -0.122008
C26   C     C_R   0.833609 0.726440 0.002862 -0.103995
C27   C     C_R   0.220153 0.307792 0.984024 -0.061616
C28   C     C_R   0.718823 0.194187 0.987171 -0.114433
C29   C     C_R   0.333333 0.774234 0.004735 -0.100675
C30   C     C_R   0.333471 0.226356 0.002966 -0.100914
C31   C     C_R   0.720189 0.807817 0.983976 -0.061630
C32   C     C_R   0.889391 0.451230 0.458367 -0.089061
C33   C     C_R   0.893118 0.548939 0.368014 -0.127777
C34   C     C_R   0.893145 0.451270 0.367932 -0.107669
C35   C     C_R   0.854283 0.347191 0.909785 0.446232
C36   C     C_R   0.889259 0.548944 0.458381 -0.097929
C37   C     C_R   0.389335 0.951234 0.458345 -0.088513
C38   C     C_R   0.393121 0.048943 0.368033 -0.125962
C39   C     C_R   0.393155 0.951272 0.367959 -0.106844
C40   C     C_R   0.389195 0.048949 0.458353 -0.095331
C41   C     C_R   0.906393 0.500105 0.331374 0.107452
C42   C     C_R   0.897895 0.500074 0.511475 0.128077
C43   C     C_R   0.406426 0.000108 0.331423 0.106160
C44   C     C_R   0.397806 0.000079 0.511434 0.126251
C45   C     C_R   0.945052 0.350684 0.096226 -0.115817
C46   C     C_R   0.353602 0.152599 0.909372 0.446172
C47   C     C_R   0.084795 0.630761 0.901738 -0.047543
C48   C     C_R   0.085750 0.370611 0.901261 -0.030508
C49   C     C_R   0.944815 0.649503 0.095814 -0.135851
C50   C     C_R   0.444958 0.850713 0.096232 -0.115820
C51   C     C_R   0.584806 0.130747 0.901737 -0.048680
C52   C     C_R   0.585739 0.870612 0.901252 -0.029721
C53   C     C_R   0.444761 0.149479 0.095832 -0.139371
C54   C     C_R   0.981917 0.545643 0.249592 -0.080753
C55   C     C_R   0.948169 0.454795 0.692916 -0.086833
C56   C     C_R   0.948908 0.545244 0.693275 -0.070754
C57   C     C_R   0.678593 0.862520 0.089389 0.544084
C58   C     C_R   0.981961 0.454465 0.249652 -0.076374
C59   C     C_R   0.481947 0.045644 0.249631 -0.079733
C60   C     C_R   0.448119 0.954799 0.692892 -0.086957
C61   C     C_R   0.448829 0.045249 0.693244 -0.065991
C62   C     C_R   0.481993 0.954467 0.249694 -0.075177
C63   C     C_R   0.733440 0.455512 0.759283 -0.049635
C64   C     C_R   0.260954 0.544866 0.302157 -0.060470
C65   C     C_R   0.260283 0.455924 0.304326 -0.039336
C66   C     C_R   0.733582 0.544574 0.760242 -0.023804
C67   C     C_R   0.233428 0.955500 0.759211 -0.050164
C68   C     C_R   0.676346 0.138978 0.090179 0.512449
C69   C     C_R   0.760925 0.044872 0.302179 -0.060286
C70   C     C_R   0.760239 0.955929 0.304373 -0.038169
C71   C     C_R   0.233566 0.044552 0.760225 -0.022544
C72   C     C_R   0.884374 0.681462 0.004302 0.036516
C73   C     C_R   0.166904 0.347906 0.991746 -0.089220
C74   C     C_R   0.164800 0.654116 0.993005 -0.092600
C75   C     C_R   0.884914 0.318487 0.005178 0.053720
C76   C     C_R   0.384190 0.181397 0.004320 0.036263
C77   C     C_R   0.666860 0.847874 0.991717 -0.088818
C78   C     C_R   0.664752 0.154161 0.992991 -0.085312
C79   C     C_R   0.354106 0.847227 0.909776 0.453009
C80   C     C_R   0.384700 0.818555 0.005170 0.046426
C81   C     C_R   0.951412 0.500082 0.274630 0.028188
C82   C     C_R   0.931435 0.500032 0.628493 0.033817
C83   C     C_R   0.451456 0.000084 0.274688 0.028025
C84   C     C_R   0.431344 0.000038 0.628453 0.034365
C85   C     C_R   0.679085 0.500007 0.738472 0.019174
C86   C     C_R   0.311337 0.500570 0.362521 0.074499
C87   C     C_R   0.179070 0.999984 0.738410 0.017774
C88   C     C_R   0.811276 0.000578 0.362585 0.074050
C89   C     C_3   0.509578 0.452146 0.612899 -0.232031
C90   C     C_3   0.403421 0.500866 0.470459 -0.066656
C91   C     C_3   0.471796 0.548639 0.509579 -0.233643
C92   C     C_3   0.479005 0.460733 0.492110 -0.232635
C93   C     C_3   0.502644 0.540399 0.630784 -0.249032
C94   C     C_3   0.009603 0.952104 0.612764 -0.233568
C95   C     C_3   0.971696 0.048668 0.509738 -0.234138
C96   C     C_3   0.978967 0.960810 0.491995 -0.233906
C97   C     C_3   0.002612 0.040309 0.630930 -0.250110
C98   C     C_3   0.432619 0.492499 0.589220 0.574818
C99   C     C_3   0.547041 0.508333 0.531775 0.567539
C100  C     C_3   0.932632 0.992386 0.589253 0.576747
Cl1   Cl    Cl    0.352091 0.481999 0.622427 -0.554936
Cl2   Cl    Cl    0.621165 0.518684 0.488597 -0.551745
Cl3   Cl    Cl    0.852170 0.981748 0.622489 -0.549148
Cl4   Cl    Cl    0.121007 0.018929 0.488556 -0.553571
H1    H     H_    0.986732 0.339002 0.183611 0.201214
H2    H     H_    0.928985 0.413724 0.663459 0.150785
H3    H     H_    0.931180 0.586433 0.664350 0.140396
H4    H     H_    0.972010 0.412904 0.261229 0.108406
H5    H     H_    0.471915 0.087248 0.261054 0.101465
H6    H     H_    0.428925 0.913728 0.663437 0.150765
H7    H     H_    0.431023 0.086439 0.664313 0.138334
H8    H     H_    0.472059 0.912906 0.261296 0.108785
H9    H     H_    0.710218 0.414688 0.746920 0.171278
H10   H     H_    0.274162 0.584862 0.335595 0.198845
H11   H     H_    0.272779 0.416659 0.340757 0.211368
H12   H     H_    0.053636 0.636749 0.814088 0.167226
H13   H     H_    0.710005 0.585492 0.747203 0.173236
H14   H     H_    0.210189 0.914679 0.746744 0.172692
H15   H     H_    0.774116 0.084878 0.335576 0.198825
H16   H     H_    0.772688 0.916667 0.340809 0.211863
H17   H     H_    0.209946 0.085450 0.747169 0.174604
H18   H     H_    0.526339 0.412990 0.657499 0.212302
H19   H     H_    0.456339 0.587966 0.466024 0.227708
H20   H     H_    0.469074 0.428641 0.433788 0.224618
H21   H     H_    0.514161 0.572466 0.690026 0.211025
H22   H     H_    0.026408 0.912916 0.657237 0.209194
H23   H     H_    0.054915 0.365488 0.813546 0.166812
H24   H     H_    0.956186 0.088026 0.466303 0.227543
H25   H     H_    0.969037 0.928788 0.433568 0.224079
H26   H     H_    0.014135 0.072307 0.690279 0.211157
H27   H     H_    0.704486 0.319644 0.893753 0.184667
H28   H     H_    0.346739 0.649470 0.103974 0.202076
H29   H     H_    0.348577 0.353579 0.093190 0.195410
H30   H     H_    0.705246 0.680140 0.898975 0.187083
H31   H     H_    0.204307 0.819816 0.894428 0.182600
H32   H     H_    0.846747 0.149603 0.104614 0.204287
H33   H     H_    0.848636 0.853464 0.093938 0.195580
H34   H     H_    0.986593 0.661598 0.182993 0.198085
H35   H     H_    0.205206 0.179902 0.899979 0.186605
H36   H     H_    0.889422 0.412652 0.492256 0.145984
H37   H     H_    0.895504 0.587470 0.335740 0.123272
H38   H     H_    0.895520 0.412743 0.335585 0.140591
H39   H     H_    0.889059 0.587509 0.492201 0.130251
H40   H     H_    0.389349 0.912656 0.492224 0.146201
H41   H     H_    0.395523 0.087475 0.335772 0.124309
H42   H     H_    0.395555 0.912744 0.335633 0.140854
H43   H     H_    0.388974 0.087515 0.492161 0.130866
H44   H     H_    0.798789 0.664355 0.630982 0.405882
H45   H     H_    0.486658 0.839006 0.183609 0.201339
H46   H     H_    0.304941 0.245865 0.268337 0.383359
H47   H     H_    0.222841 0.693197 0.347240 0.408090
H48   H     H_    0.803488 0.241743 0.708451 0.409206
H49   H     H_    0.293562 0.162623 0.628309 0.390947
H50   H     H_    0.805136 0.745923 0.268510 0.382485
H51   H     H_    0.722552 0.193219 0.347101 0.408488
H52   H     H_    0.303592 0.741777 0.708666 0.407812
H53   H     H_    0.025032 0.743103 0.689787 0.354289
H54   H     H_    0.106319 0.223452 0.146889 0.403309
H55   H     H_    0.004899 0.780769 0.300905 0.363941
H56   H     H_    0.553651 0.136703 0.814083 0.174305
H57   H     H_    0.996614 0.230954 0.941905 0.402095
H58   H     H_    0.429130 0.239269 0.683206 0.405031
H59   H     H_    0.606488 0.723775 0.146449 0.404104
H60   H     H_    0.505874 0.281017 0.300151 0.365175
H61   H     H_    0.496784 0.730761 0.941031 0.402004
H62   H     H_    0.554945 0.865549 0.813542 0.166959
H63   H     H_    0.486572 0.161593 0.183004 0.198817
H64   H     H_    0.971870 0.587248 0.260996 0.100654
N1    N     N_R   0.892620 0.603790 0.941800 -0.121499
N2    N     N_R   0.047790 0.602400 0.942090 -0.074255
N3    N     N_R   0.047790 0.397600 0.942090 -0.077688
N4    N     N_R   0.952210 0.602400 0.057910 -0.089648
N5    N     N_R   0.452210 0.897600 0.057910 -0.097386
N6    N     N_R   0.547790 0.102400 0.942090 -0.075430
N7    N     N_R   0.547790 0.897600 0.942090 -0.077809
N8    N     N_R   0.452210 0.102400 0.057910 -0.089888
N9    N     N_R   0.026300 0.529110 0.206760 -0.044342
N10   N     N_R   0.973700 0.470890 0.793240 -0.060945
N11   N     N_R   0.973700 0.529110 0.793240 -0.054631
N12   N     N_R   0.107380 0.396210 0.058200 -0.116814
N13   N     N_R   0.026300 0.470890 0.206760 -0.048050
N14   N     N_R   0.526300 0.029110 0.206760 -0.044435
N15   N     N_R   0.473700 0.970890 0.793240 -0.060979
N16   N     N_R   0.473700 0.029110 0.793240 -0.054787
N17   N     N_R   0.526300 0.970890 0.206760 -0.048226
N18   N     N_R   0.818530 0.472270 0.792960 -0.043198
N19   N     N_R   0.181470 0.527730 0.207040 -0.074055
N20   N     N_R   0.181470 0.472270 0.207040 -0.080538
N21   N     N_R   0.818530 0.527730 0.792960 -0.035397
N22   N     N_R   0.318530 0.972270 0.792960 -0.043076
N23   N     N_R   0.107380 0.603790 0.058200 -0.110494
N24   N     N_R   0.681470 0.027730 0.207040 -0.073970
N25   N     N_R   0.681470 0.972270 0.207040 -0.080637
N26   N     N_R   0.318530 0.027730 0.792960 -0.034793
N27   N     N_R   0.892620 0.396210 0.941800 -0.127261
N28   N     N_R   0.392620 0.103790 0.941800 -0.122121
N29   N     N_R   0.607380 0.896210 0.058200 -0.116877
N30   N     N_R   0.607380 0.103790 0.058200 -0.109895
N31   N     N_R   0.392620 0.896210 0.941800 -0.127260
N32   N     N_R   0.952210 0.397600 0.057910 -0.097302
Ni1   Ni    Ni4+2 0.934150 0.565840 0.869060 0.314235
Ni2   Ni    Ni4+2 0.065850 0.434160 0.130940 0.282540
Ni3   Ni    Ni4+2 0.065850 0.565840 0.130940 0.278559
Ni4   Ni    Ni4+2 0.934150 0.434160 0.869060 0.317734
Ni5   Ni    Ni4+2 0.434150 0.065840 0.869060 0.310466
Ni6   Ni    Ni4+2 0.565850 0.934160 0.130940 0.283376
Ni7   Ni    Ni4+2 0.565850 0.065840 0.130940 0.279253
Ni8   Ni    Ni4+2 0.434150 0.934160 0.869060 0.318225
O1    O     O_2   0.693313 0.679935 0.709113 -0.285285
O2    O     O_2   0.693741 0.322441 0.706345 -0.298869
O3    O     O_2   0.832130 0.348127 0.714555 -0.274013
O4    O     O_3   0.827096 0.252847 0.785243 -0.480125
O5    O     O_2   0.192675 0.179865 0.709629 -0.282666
O6    O     O_2   0.328265 0.238777 0.784372 -0.194628
O7    O     O_3   0.328996 0.145589 0.703541 -0.556803
O8    O     O_2   0.846159 0.851394 0.289665 -0.353889
O9    O     O_2   0.704252 0.828790 0.277844 -0.246885
O10   O     O_3   0.759785 0.762102 0.193147 -0.550670
O11   O     O_2   0.839109 0.158887 0.291473 -0.310074
O12   O     O_2   0.829104 0.738810 0.784691 -0.157941
O13   O     O_2   0.735948 0.235863 0.188595 -0.204715
O14   O     O_3   0.685829 0.169752 0.279838 -0.533581
O15   O     O_2   0.193411 0.822363 0.706599 -0.326538
O16   O     O_2   0.331542 0.848113 0.714298 -0.270303
O17   O     O_3   0.326854 0.752849 0.785328 -0.486368
O18   O     O_2   0.017908 0.736477 0.912918 -0.177867
O19   O     O_2   0.038560 0.817870 0.837460 -0.228768
O20   O     O_3   0.994326 0.729297 0.723303 -0.502351
O21   O     O_2   0.024455 0.240879 0.282591 -0.202423
O22   O     O_2   0.023288 0.159531 0.188891 -0.269118
O23   O     O_3   0.830150 0.645640 0.704105 -0.536089
O24   O     O_3   0.062614 0.251059 0.140286 -0.490794
O25   O     O_2   0.047869 0.754815 0.110990 -0.153973
O26   O     O_2   0.023560 0.843720 0.161125 -0.225902
O27   O     O_3   0.041838 0.761333 0.280581 -0.501997
O28   O     O_2   0.000114 0.272506 0.740463 -0.230516
O29   O     O_2   0.038624 0.184203 0.830419 -0.295526
O30   O     O_3   0.017936 0.264350 0.926686 -0.485977
O31   O     O_2   0.516878 0.236094 0.910266 -0.210956
O32   O     O_2   0.538942 0.317691 0.836023 -0.239306
O33   O     O_3   0.496315 0.229156 0.721894 -0.534495
O34   O     O_2   0.346185 0.351270 0.289606 -0.351151
O35   O     O_2   0.524823 0.740511 0.282071 -0.198016
O36   O     O_2   0.523174 0.659420 0.187374 -0.268784
O37   O     O_3   0.562202 0.751166 0.139122 -0.491692
O38   O     O_2   0.547150 0.254913 0.108783 -0.152143
O39   O     O_2   0.523170 0.343890 0.159029 -0.226477
O40   O     O_3   0.542649 0.261663 0.279500 -0.499140
O41   O     O_2   0.500312 0.772769 0.739643 -0.230515
O42   O     O_2   0.538603 0.684344 0.829054 -0.296225
O43   O     O_3   0.517640 0.764265 0.925517 -0.485092
O44   O     O_2   0.204259 0.328849 0.277876 -0.250867
O45   O     O_3   0.259481 0.262052 0.193002 -0.549977
O46   O     O_2   0.339256 0.658798 0.291407 -0.310025
O47   O     O_2   0.236138 0.735806 0.188662 -0.202195
O48   O     O_3   0.186084 0.669710 0.279996 -0.534389
S1    S     S_3+6 0.799177 0.681002 0.774013 0.018831
S2    S     S_3+6 0.999059 0.218684 0.173542 0.009671
S3    S     S_3+6 0.000346 0.784695 0.152420 0.051166
S4    S     S_3+6 0.055507 0.243922 0.851827 0.008252
S5    S     S_3+6 0.554526 0.257653 0.849812 0.037746
S6    S     S_3+6 0.499007 0.718575 0.172651 0.011118
S7    S     S_3+6 0.500216 0.284853 0.150917 0.052210
S8    S     S_3+6 0.555497 0.744040 0.850844 0.007880
S9    S     S_3+6 0.248870 0.326852 0.217744 -0.044069
S10   S     S_3+6 0.237869 0.677125 0.215559 -0.003412
S11   S     S_3+6 0.799685 0.318639 0.774311 -0.003892
S12   S     S_3+6 0.298481 0.180957 0.773919 -0.006964
S13   S     S_3+6 0.748926 0.826876 0.217780 -0.044473
S14   S     S_3+6 0.737709 0.177184 0.215517 -0.004024
S15   S     S_3+6 0.299343 0.818627 0.774317 -0.014030
S16   S     S_3+6 0.054559 0.757869 0.851296 0.052888

loop_
_geom_bond_atom_site_label_1
_geom_bond_atom_site_label_2
_ccdc_geom_bond_type
H52   O17   S    
C3    Cl4   S    
C62   C83   A    
O2    S11   D    
C37   H40   S    
N10   Ni4   S    
N4    Ni3   S    
C43   C83   S    
C14   C18   A    
C36   C42   A    
N13   Ni2   S    
C42   C82   S    
O32   S5    D    
C70   C88   A    
C46   S12   S    
C97   C100  S    
C66   C85   A    
C46   C76   A    
C5    C94   S    
C67   N22   A    
C65   C86   A    
O25   S3    D    
C45   N32   A    
O15   S15   D    
C6    C19   A    
O23   S1    S    
O5    S12   D    
C35   C75   A    
C58   N13   A    
C17   C26   A    
N8    Ni7   S    
C96   H25   S    
C36   H39   S    
C59   C83   A    
C97   H26   S    
C32   H36   S    
N12   Ni2   S    
C10   C15   A    
C92   H20   S    
C13   N12   A    
O9    S13   D    
C9    C22   A    
C6    C25   A    
N5    N31   A    
C89   H18   S    
C48   N3    A    
C66   N21   A    
N19   Ni3   S    
C51   H56   S    
N3    Ni4   S    
C33   C36   A    
C16   S2    S    
C2    C85   S    
C68   N30   A    
N14   Ni7   S    
O34   S9    D    
N20   Ni2   S    
N28   Ni5   S    
N7    N29   A    
N2    Ni1   S    
H53   O20   S    
C20   S6    S    
C4    C96   S    
C56   H3    S    
O1    S1    D    
C95   H24   S    
C53   H63   S    
O17   S15   S    
N11   Ni1   S    
O4    S11   S    
C22   S8    S    
C61   N16   A    
C49   C72   A    
C12   C17   A    
N6    Ni5   S    
N9    Ni3   S    
O30   S4    S    
N5    Ni6   S    
O35   S6    D    
C57   S13   S    
C17   S3    S    
C28   C78   S    
O7    S12   S    
C18   S4    S    
N27   Ni4   S    
C35   N27   A    
O43   S8    S    
O40   S7    S    
C52   H62   S    
C9    H30   S    
C60   N15   A    
C15   C23   A    
H48   O4    S    
C65   N20   A    
C91   H19   S    
C49   H34   S    
C63   C85   A    
N15   Ni8   S    
C65   H11   S    
N29   Ni6   S    
C47   H12   S    
C34   C41   A    
N23   Ni3   S    
N7    Ni8   S    
C14   C30   A    
O37   S6    S    
N17   Ni6   S    
C69   N24   A    
C64   C86   A    
C45   H1    S    
C21   S7    S    
C9    C26   A    
N10   N11   A    
C1    S1    S    
C20   C29   A    
C94   H22   S    
C35   S11   S    
C68   C78   A    
O26   S3    D    
C63   H9    S    
O28   S4    D    
C1    C72   A    
N6    N30   A    
C22   C31   A    
C55   H2    S    
O10   S13   S    
C34   H38   S    
O22   S2    D    
O38   S7    D    
C79   N31   A    
C10   H31   S    
O20   S16   S    
C58   C81   A    
C70   H16   S    
C71   N26   A    
C39   C43   A    
H57   O30   S    
N21   Ni1   S    
N1    Ni1   S    
N2    N23   A    
C69   H15   S    
C100  Cl3   S    
C79   S15   S    
N16   Ni5   S    
C59   H5    S    
C13   S9    S    
C55   C82   A    
N14   N17   A    
C32   C34   A    
H50   O10   S    
C7    C23   A    
C2    C89   S    
N15   N16   A    
C38   H41   S    
C68   S14   S    
C57   C77   A    
C91   C93   S    
C4    C95   S    
C30   C76   S    
C11   C16   A    
O19   S16   D    
C90   C92   S    
C94   C100  S    
C63   N18   A    
C41   C81   S    
O33   S5    S    
O29   S4    D    
O3    S11   D    
C8    C21   A    
C5    C87   S    
N18   Ni4   S    
H44   O23   S    
C26   C72   S    
N8    N28   A    
C89   C92   S    
C94   C96   S    
C19   C28   A    
C52   N7    A    
O42   S8    D    
C7    H28   S    
C3    C96   S    
C69   C88   A    
C62   N17   A    
C71   C87   A    
H58   O33   S    
C93   H21   S    
C5    C97   S    
C2    C99   S    
C51   N6    A    
C4    C100  S    
C12   C31   A    
C86   C90   S    
C55   N10   A    
C38   C43   A    
N3    N12   A    
H59   O37   S    
C53   C76   A    
O36   S6    D    
C23   C74   S    
H54   O24   S    
C52   C77   A    
C61   H7    S    
O27   S3    S    
C3    C5    S    
O8    S13   D    
H49   O7    S    
C47   N2    A    
N27   N32   A    
N22   Ni8   S    
C16   C25   A    
N26   Ni5   S    
O48   S10   S    
O46   S10   D    
C31   C77   S    
N25   Ni6   S    
C66   H13   S    
C40   H43   S    
C24   S10   S    
N30   Ni7   S    
H61   O43   S    
H55   O27   S    
C48   C73   A    
C71   H17   S    
C2    C93   S    
C59   N14   A    
C18   C27   A    
C47   C74   A    
C54   H64   S    
C6    H27   S    
H46   O45   S    
C61   C84   A    
C50   C80   A    
C49   N4    A    
C3    C95   S    
C95   C97   S    
C56   C82   A    
C4    C88   S    
O47   S10   D    
O6    S12   D    
C98   Cl1   S    
C21   C30   A    
C67   C87   A    
C54   N9    A    
C44   C84   S    
C89   C98   S    
C45   C75   A    
O11   S14   D    
C33   H37   S    
N24   N25   A    
N18   N21   A    
O12   S1    D    
C8    H29   S    
C51   C78   A    
C33   C41   A    
N19   N20   A    
C37   C39   A    
C91   C99   S    
C11   H32   S    
O21   S2    D    
O16   S15   D    
C38   C40   A    
C60   C84   A    
C50   H45   S    
C24   C74   A    
C90   C91   S    
C29   C80   S    
C11   C28   A    
C37   C44   A    
C70   N25   A    
N9    N13   A    
C39   H42   S    
C1    N1    A    
N31   Ni8   S    
N24   Ni7   S    
O45   S9    S    
C24   N23   A    
C58   H4    S    
C19   S5    S    
O41   S8    D    
H60   O40   S    
C67   H14   S    
O18   S16   D    
C64   N19   A    
C60   H6    S    
N22   N26   A    
C57   N29   A    
C79   C80   A    
O14   S14   S    
C10   C29   A    
O44   S9    D    
C40   C44   A    
C99   Cl2   S    
C62   H8    S    
C14   H35   S    
C53   N8    A    
C64   H10   S    
N32   Ni2   S    
C7    C20   A    
C46   N28   A    
C8    C27   A    
C32   C42   A    
C12   H33   S    
O31   S5    D    
H51   O14   S    
O24   S2    S    
N1    N4    A    
C13   C73   A    
C25   C75   S    
C27   C73   S    
C93   C98   S    
C90   C98   S    
C54   C81   A    
O39   S7    D    
O13   S14   D    
C15   S16   S    
C92   C99   S    
C50   N5    A    
H47   O48   S    
C48   H23   S    
C56   N11   A    
