data_mof_unit_pretest_100.cif
_audit_creation_date              2012-12-10T17:02:19-0500
_audit_creation_method            fapswitch 2.2
_symmetry_space_group_name_H-M    P1
_symmetry_Int_Tables_number       1
_space_group_crystal_system       triclinic
_cell_length_a                    10.614548
_cell_length_b                    10.724741
_cell_length_c                    10.052918
_cell_angle_alpha                 89.84675
_cell_angle_beta                  89.981571
_cell_angle_gamma                 90.09422
_cell_volume                      1144.40117354

loop_
_atom_site_label
_atom_site_type_symbol
_atom_type_description
_atom_site_fract_x
_atom_site_fract_y
_atom_site_fract_z
_atom_type_partial_charge
C1    C     C_R   0.504826 0.262774 0.500128 0.741597
C2    C     C_2   0.526559 0.132075 0.501016 0.478280
C3    C     C_2   0.564431 0.577894 0.926179 0.632388
C4    C     C_R   0.260729 0.498990 0.499987 0.917293
C5    C     C_2   0.579756 0.563128 0.074432 0.568172
C6    C     C_R   0.497108 0.737201 0.499644 0.907651
C7    C     C_R   0.739301 0.498961 0.499955 0.873744
C8    C     C_R   0.131294 0.269950 0.560687 -0.205212
C9    C     C_R   0.065726 0.160369 0.589747 -0.227026
C10   C     C_R   0.934065 0.159328 0.588424 0.587856
C11   C     C_R   0.868687 0.269567 0.561351 -0.214610
C12   C     C_R   0.065861 0.381420 0.530872 0.026482
C13   C     C_R   0.934069 0.381047 0.531114 -0.000049
C14   C     C_3   0.119754 0.744774 0.305232 -0.282524
C15   C     C_3   0.858899 0.976906 0.507968 -0.186375
C16   C     C_R   0.128299 0.493864 0.499527 -0.175989
C17   C     C_R   0.064481 0.602880 0.464041 0.500329
C18   C     C_R   0.934825 0.601974 0.466420 -0.240719
C19   C     C_R   0.871519 0.492862 0.499693 -0.110569
C20   C     C_2   0.520110 0.932960 0.390331 -0.169783
C21   C     C_2   0.485052 0.868734 0.497863 -0.197317
C22   C     C_2   0.509827 0.066595 0.389519 -0.323980
F1    F     F_    0.572994 0.080594 0.615002 -0.614749
F2    F     F_    0.623932 0.675502 0.866916 -0.616123
F3    F     F_    0.473034 0.390362 0.905454 -0.610962
F4    F     F_    0.675929 0.624977 0.134266 -0.617447
H1    H     H_    0.419556 0.470963 0.103824 0.172442
H2    H     H_    0.150654 0.667003 0.239689 0.181715
H3    H     H_    0.182679 0.825374 0.285223 0.195208
H4    H     H_    0.953101 0.942645 0.476203 0.150811
H5    H     H_    0.811546 0.026871 0.424593 0.149081
H6    H     H_    0.800256 0.894358 0.532842 0.211566
H7    H     H_    0.233092 0.266370 0.561337 0.154933
H8    H     H_    0.117246 0.076065 0.613188 0.175127
H9    H     H_    0.766976 0.266536 0.563125 0.165097
H10   H     H_    0.883246 0.686769 0.444520 0.145724
H11   H     H_    0.552889 0.887405 0.300308 0.206277
H12   H     H_    0.444145 0.912188 0.585115 0.214503
H13   H     H_    0.485521 0.110968 0.295692 0.181922
H14   H     H_    0.022176 0.773830 0.279791 0.175415
N1    N     N_2   0.501340 0.501330 0.852150 0.061996
N2    N     N_2   0.501380 0.501360 0.147810 -0.239129
O1    O     O_R   0.499980 0.319060 0.613040 -0.521231
O2    O     O_3   0.868331 0.052610 0.621930 -0.546196
O3    O     O_R   0.500020 0.319100 0.386900 -0.651383
O4    O     O_R   0.316750 0.499980 0.613090 -0.598705
O5    O     O_R   0.316790 0.500020 0.386950 -0.626561
O6    O     O_R   0.499980 0.680900 0.613100 -0.568241
O7    O     O_R   0.500020 0.680940 0.386960 -0.600884
O8    O     O_R   0.683210 0.499980 0.613050 -0.581833
O9    O     O_R   0.683250 0.500020 0.386910 -0.560944
O10   O     O_3   0.130058 0.712701 0.440918 -0.629481
Zn1   Zn    Zn3+2 0.499970 0.499970 0.650990 1.130464
Zn2   Zn    Zn3+2 0.500030 0.500030 0.349010 1.011947

loop_
_geom_bond_atom_site_label_1
_geom_bond_atom_site_label_2
_ccdc_geom_bond_type
C2    C22   D    
C5    N2    D    
C15   H5    S    
C9    C10   A    
C10   O2    S    
C8    C12   A    
O9    Zn2   S    
N1    Zn1   S    
C14   H2    S    
C11   H9    S    
C17   C18   A    
C8    C9    A    
C7    O9    A    
C15   H6    S    
C4    O4    A    
N2    Zn2   S    
C20   H11   S    
C11   C13   A    
H1    N2    S    
C1    O3    A    
C3    F2    S    
C9    H8    S    
C6    O6    A    
O5    Zn2   S    
C22   H13   S    
O4    Zn1   S    
C4    C16   S    
O1    Zn1   S    
C20   C22   S    
O3    Zn2   S    
C1    C2    S    
C7    C19   S    
C8    H7    S    
C6    O7    A    
O6    Zn1   S    
O8    Zn1   S    
C10   C11   A    
C13   C19   A    
C14   H3    S    
C14   H14   S    
O7    Zn2   S    
C12   C16   A    
C20   C21   D    
C17   O10   S    
C15   H4    S    
C18   C19   A    
F3    N1    S    
C2    F1    S    
C15   O2    S    
C3    N1    D    
C12   C13   A    
C6    C21   S    
C18   H10   S    
C1    O1    A    
C14   O10   S    
C21   H12   S    
C5    F4    S    
C7    O8    A    
C16   C17   A    
C3    C5    S    
C4    O5    A    
