data_mof_unit_pretest_24.cif
_audit_creation_date              2012-12-10T17:20:26-0500
_audit_creation_method            fapswitch 2.2
_symmetry_space_group_name_H-M    P1
_symmetry_Int_Tables_number       1
_space_group_crystal_system       triclinic
_cell_length_a                    11.684153
_cell_length_b                    10.77606
_cell_length_c                    9.632421
_cell_angle_alpha                 89.771796
_cell_angle_beta                  90.878393
_cell_angle_gamma                 90.071974
_cell_volume                      1212.65677587

loop_
_atom_site_label
_atom_site_type_symbol
_atom_type_description
_atom_site_fract_x
_atom_site_fract_y
_atom_site_fract_z
_atom_type_partial_charge
C1    C     C_R   0.496372 0.262831 0.500206 0.780142
C2    C     C_R   0.230714 0.063285 0.715321 -0.139268
C3    C     C_R   0.230364 0.934246 0.714610 -0.133889
C4    C     C_R   0.314607 0.869718 0.643849 -0.172678
C5    C     C_R   0.402531 0.933923 0.574015 0.096414
C6    C     C_R   0.402839 0.065215 0.574662 0.096952
C7    C     C_R   0.488562 0.128963 0.500337 -0.099000
C8    C     C_R   0.568409 0.064392 0.422287 -0.195455
C9    C     C_R   0.568154 0.936376 0.421726 -0.202096
C10   C     C_R   0.488034 0.870972 0.499216 -0.090501
C11   C     C_R   0.677387 0.622584 0.134788 -0.139138
C12   C     C_R   0.284236 0.500090 0.499187 0.797743
C13   C     C_R   0.781539 0.636546 0.067046 -0.251318
C14   C     C_R   0.801520 0.567309 0.947701 -0.182662
C15   C     C_R   0.711685 0.499040 0.886481 0.225687
C16   C     C_R   0.599191 0.521571 0.931500 0.189131
C17   C     C_R   0.590373 0.549376 0.074387 0.186632
C18   C     C_R   0.407519 0.461704 0.072364 -0.060725
C19   C     C_R   0.405173 0.469067 0.924438 -0.073633
C20   C     C_R   0.496192 0.737147 0.499728 0.775695
C21   C     C_R   0.715749 0.500600 0.500719 0.820717
C22   C     C_1   0.162462 0.500612 0.497980 -0.194460
C23   C     C_1   0.059903 0.501080 0.498868 -0.008283
C24   C     C_1   0.940074 0.501420 0.500689 -0.013211
C25   C     C_1   0.837523 0.501313 0.501611 -0.195467
C26   C     C_R   0.315274 0.128632 0.645220 -0.179814
Cu1   Cu    Cu3+1 0.499990 0.499990 0.640660 0.934341
Cu2   Cu    Cu3+1 0.500010 0.500010 0.359340 0.943269
H1    H     H_    0.632981 0.113516 0.363894 0.151781
H2    H     H_    0.888335 0.557310 0.911516 0.152684
H3    H     H_    0.327846 0.442565 0.869196 0.142748
H4    H     H_    0.309546 0.228701 0.644940 0.144516
H5    H     H_    0.164247 0.113048 0.768840 0.132977
H6    H     H_    0.163614 0.883877 0.767559 0.134868
H7    H     H_    0.308366 0.769679 0.642412 0.148456
H8    H     H_    0.632638 0.887924 0.363117 0.138063
H9    H     H_    0.332696 0.428168 0.125501 0.143140
H10   H     H_    0.666142 0.669972 0.231733 0.180810
H11   H     H_    0.850067 0.689853 0.114724 0.160634
N1    N     N_R   0.501070 0.501210 0.147910 -0.191919
N2    N     N_R   0.501110 0.501290 0.852040 -0.196596
O1    O     O_R   0.499990 0.319640 0.618810 -0.591528
O2    O     O_R   0.500000 0.319660 0.381240 -0.566257
O3    O     O_R   0.337190 0.500000 0.618790 -0.595557
O4    O     O_R   0.337200 0.500030 0.381210 -0.574375
O5    O     O_R   0.500000 0.680340 0.618760 -0.570645
O6    O     O_R   0.500010 0.680360 0.381190 -0.589846
O7    O     O_R   0.662800 0.499970 0.618790 -0.567026
O8    O     O_R   0.662810 0.500000 0.381210 -0.581891
C27   C     C_3   0.742456 0.371030 0.836232 -0.813187
H12   H     H_    0.812202 0.375671 0.759490 0.223757
H13   H     H_    0.773343 0.314437 0.925833 0.208249
H14   H     H_    0.667495 0.322221 0.790378 0.261019

loop_
_geom_bond_atom_site_label_1
_geom_bond_atom_site_label_2
_ccdc_geom_bond_type
Cu1   O7    S    
C9    H8    S    
C27   H13   S    
C23   C24   S    
Cu2   O6    S    
C26   H4    S    
C6    C7    A    
C11   H10   S    
Cu2   O8    S    
Cu1   N2    S    
Cu2   O2    S    
C21   O7    A    
C19   H3    S    
C21   O8    A    
C2    C3    A    
C4    H7    S    
C19   N2    A    
C5    C10   A    
C2    C26   A    
C13   C14   A    
C4    C5    A    
C11   C13   A    
Cu1   O1    S    
C6    C26   A    
C14   H2    S    
C8    H1    S    
Cu1   O3    S    
Cu1   O5    S    
C18   H9    S    
C27   H12   S    
C22   C23   T    
C5    C6    A    
C20   O5    A    
Cu2   O4    S    
C13   H11   S    
C20   O6    A    
C16   C17   A    
Cu2   N1    S    
C15   C16   A    
C27   H14   S    
C12   C22   S    
C1    O1    A    
C7    C8    A    
C24   C25   T    
C2    H5    S    
C12   O3    A    
C18   C19   A    
C9    C10   A    
C15   C27   S    
Cu1   Cu2   S    
C21   C25   S    
C14   C15   A    
C8    C9    A    
C18   N1    A    
C3    H6    S    
C1    C7    S    
C16   N2    A    
C1    O2    A    
C11   C17   A    
C3    C4    A    
C10   C20   S    
C12   O4    A    
C17   N1    A    
