data_mof_unit_pretest_1001.cif
_audit_creation_date              2012-12-11T16:20:19-0500
_audit_creation_method            fapswitch 2.2
_symmetry_space_group_name_H-M    P1
_symmetry_Int_Tables_number       1
_space_group_crystal_system       triclinic
_cell_length_a                    6.919232
_cell_length_b                    34.283971
_cell_length_c                    38.335722
_cell_angle_alpha                 99.640302
_cell_angle_beta                  89.658537
_cell_angle_gamma                 90.360485
_cell_volume                      8965.2432068

loop_
_atom_site_label
_atom_site_type_symbol
_atom_type_description
_atom_site_fract_x
_atom_site_fract_y
_atom_site_fract_z
_atom_type_partial_charge
O1    O     O_R   0.494320 0.461440 0.460990 -0.546798
O2    O     O_R   0.821450 0.462560 0.532500 -0.546724
O3    O     O_R   0.994330 0.538560 0.539010 -0.541011
C1    C     C_R   0.651981 0.453779 0.543770 0.710489
O4    O     O_R   0.823870 0.456770 0.460860 -0.536196
O5    O     O_R   0.996760 0.532730 0.466860 -0.535736
C2    C     C_R   0.655242 0.446452 0.447899 0.777051
O6    O     O_R   0.491880 0.467270 0.533140 -0.546836
O7    O     O_3   0.661650 0.524930 0.502050 -0.351860
V1    V     V_3+5 0.935500 0.495380 0.499620 1.455253
O8    O     O_R   0.326630 0.537440 0.467500 -0.505905
C3    C     C_R   0.158392 0.546011 0.456145 0.794616
O9    O     O_R   0.324210 0.543230 0.539140 -0.538137
C4    C     C_R   0.155263 0.553848 0.552050 0.728908
V2    V     V_3+5 0.435810 0.504620 0.500380 1.490322
O10   O     O_3   0.159790 0.475070 0.497950 -0.381124
C5    C     C_R   0.085024 0.833907 0.792365 0.675053
N1    N     N_R   0.040056 0.823713 0.824613 -0.541372
C6    C     C_R   0.005143 0.784975 0.827735 0.608654
C7    C     C_R   0.015915 0.754813 0.797873 -0.039809
C8    C     C_R   0.063887 0.764847 0.764724 -0.015692
C9    C     C_R   0.098769 0.804696 0.761852 -0.053671
C10   C     C_R   0.981056 0.714921 0.800397 -0.119818
C11   C     C_R   0.994221 0.685449 0.770478 -0.124855
C12   C     C_R   0.042758 0.695101 0.737268 -0.049485
C13   C     C_R   0.077314 0.734957 0.734388 -0.010560
C14   C     C_R   0.125756 0.744984 0.701259 -0.030276
C15   C     C_R   0.160043 0.784885 0.698710 -0.136091
C16   C     C_R   0.146543 0.814364 0.728613 -0.127240
C17   C     C_R   0.057697 0.665868 0.706797 0.616087
N2    N     N_R   0.105348 0.676006 0.674642 -0.547510
C18   C     C_R   0.139396 0.714764 0.671501 0.567386
O11   O     O_2   0.115172 0.872225 0.789738 -0.491111
O12   O     O_2   0.962073 0.775555 0.859682 -0.502887
H1    H     H_    0.943729 0.706307 0.825520 0.181189
H2    H     H_    0.966552 0.655064 0.773497 0.182650
O13   O     O_2   0.023907 0.627636 0.709306 -0.501043
O14   O     O_2   0.188212 0.724050 0.639756 -0.522710
H3    H     H_    0.197560 0.793493 0.673593 0.172444
H4    H     H_    0.174140 0.844751 0.725588 0.177148
C19   C     C_R   0.989464 0.644369 0.615726 -0.196619
H5    H     H_    0.877057 0.666417 0.617241 0.149766
C20   C     C_R   0.999640 0.614417 0.586085 -0.195716
H6    H     H_    0.894675 0.613878 0.565157 0.152130
C21   C     C_R   0.145433 0.585738 0.583264 -0.101292
C22   C     C_R   0.279766 0.587318 0.610807 -0.276404
H7    H     H_    0.390766 0.564945 0.609364 0.141507
C23   C     C_R   0.267994 0.616967 0.640983 0.525813
C24   C     C_R   0.120627 0.645516 0.643686 0.282392
C25   C     C_R   0.853796 0.863028 0.873396 -0.124685
H8    H     H_    0.724398 0.846909 0.863874 0.216450
C26   C     C_R   0.843122 0.892791 0.903243 -0.157959
H9    H     H_    0.704424 0.899012 0.916143 0.166706
C27   C     C_R   0.009634 0.914100 0.916262 -0.147177
C28   C     C_R   0.186741 0.904797 0.898582 -0.263326
H10   H     H_    0.317813 0.920570 0.907775 0.155010
C29   C     C_R   0.196866 0.875255 0.868584 0.682509
C30   C     C_R   0.030264 0.854139 0.855691 0.241554
C31   C     C_R   0.888266 0.848317 0.169992 0.662785
O15   O     O_2   0.739776 0.873711 0.170280 -0.509824
N3    N     N_R   0.034768 0.848060 0.145669 -0.533381
C32   C     C_R   0.191359 0.823811 0.146294 0.652579
C33   C     C_R   0.868128 0.872059 0.096170 0.631064
C34   C     C_R   0.856446 0.898074 0.071700 0.506099
C35   C     C_R   0.164278 0.927023 0.092209 -0.257074
C36   C     C_R   0.173017 0.901792 0.117278 -0.135501
C37   C     C_R   0.025278 0.874044 0.119559 0.142357
C38   C     C_R   0.049977 0.796998 0.195646 -0.055472
C39   C     C_R   0.892265 0.822569 0.195023 -0.059063
C40   C     C_R   0.743641 0.822491 0.219791 -0.142052
C41   C     C_R   0.203308 0.798531 0.171648 -0.061723
C42   C     C_R   0.004860 0.925930 0.069459 -0.279265
H11   H     H_    0.281340 0.947852 0.091001 0.177327
H12   H     H_    0.295109 0.903918 0.135052 0.197054
H13   H     H_    0.621923 0.842327 0.220370 0.170422
C43   C     C_R   0.149281 0.572954 0.429670 -0.252855
C44   C     C_R   0.909084 0.743519 0.270130 0.031185
C45   C     C_R   0.218122 0.716776 0.244588 -0.124592
C46   C     C_R   0.070970 0.718353 0.270813 0.020145
C47   C     C_R   0.757347 0.741061 0.294373 -0.259820
C48   C     C_R   0.772760 0.719020 0.321728 0.520171
C49   C     C_R   0.937187 0.695356 0.323716 -0.081747
C50   C     C_R   0.083413 0.694001 0.297526 -0.177596
C51   C     C_R   0.242514 0.668474 0.298243 -0.181573
C52   C     C_R   0.256612 0.646392 0.326263 0.738002
N4    N     N_R   0.115492 0.648607 0.351690 -0.553498
C53   C     C_R   0.958483 0.672529 0.350959 0.638234
C54   C     C_R   0.281296 0.627418 0.402926 0.423032
C55   C     C_R   0.295090 0.601320 0.427482 0.487239
C56   C     C_R   0.992551 0.570442 0.406232 -0.241323
C57   C     C_R   0.983003 0.595110 0.380749 -0.131188
C58   C     C_R   0.126940 0.623695 0.378655 0.157793
O16   O     O_2   0.824804 0.674550 0.376932 -0.459656
C59   C     C_R   0.901349 0.769748 0.244968 0.061817
C60   C     C_R   0.055629 0.770336 0.220521 0.079045
C61   C     C_R   0.217099 0.745065 0.221027 0.049681
C62   C     C_R   0.748413 0.796972 0.244394 -0.197780
H14   H     H_    0.621077 0.755522 0.292654 0.122441
H15   H     H_    0.629586 0.799864 0.262857 0.126329
O17   O     O_2   0.334410 0.823732 0.122218 -0.448138
C63   C     C_R   0.367284 0.775607 0.174064 -0.138593
H16   H     H_    0.492091 0.777742 0.157266 0.193815
C64   C     C_R   0.357172 0.685858 0.242323 0.361212
C65   C     C_R   0.377199 0.664045 0.269992 0.434091
O18   O     O_2   0.408653 0.622364 0.327926 -0.478393
C66   C     C_R   0.376609 0.750503 0.199006 -0.167337
H17   H     H_    0.878818 0.548769 0.407125 0.198842
H18   H     H_    0.863200 0.591881 0.362417 0.190358
H19   H     H_    0.514173 0.736665 0.201212 0.200335
C67   C     C_R   0.505974 0.315192 0.640744 0.624315
O19   O     O_2   0.411647 0.305771 0.609796 -0.503781
N5    N     N_R   0.617965 0.348656 0.646412 -0.555674
C68   C     C_R   0.722803 0.358495 0.676802 0.685561
C69   C     C_R   0.463677 0.396746 0.614162 -0.134260
C70   C     C_R   0.470933 0.422179 0.589125 -0.189141
C71   C     C_R   0.802657 0.403147 0.575417 -0.274006
C72   C     C_R   0.793672 0.376521 0.599578 0.499086
C73   C     C_R   0.625284 0.374152 0.619933 0.269291
C74   C     C_R   0.604053 0.299272 0.697559 -0.210173
C75   C     C_R   0.492472 0.290188 0.666565 -0.144814
C76   C     C_R   0.365255 0.257284 0.662771 0.349443
C77   C     C_R   0.720642 0.333801 0.702923 -0.225889
C78   C     C_R   0.641399 0.426054 0.569740 -0.115484
H20   H     H_    0.935426 0.405278 0.560719 0.147005
C79   C     C_R   0.514138 0.073857 0.930193 -0.098754
C80   C     C_R   0.521381 0.210090 0.740469 -0.008682
C81   C     C_R   0.650921 0.263947 0.784374 0.022569
C82   C     C_R   0.579607 0.224848 0.775568 -0.014583
C83   C     C_R   0.495000 0.168731 0.730931 0.658915
C84   C     C_R   0.492657 0.144220 0.756560 -0.191005
C85   C     C_R   0.522876 0.159771 0.792300 -0.096275
C86   C     C_R   0.569147 0.200142 0.801874 -0.141589
C87   C     C_R   0.605906 0.215750 0.837629 -0.157659
C88   C     C_R   0.588151 0.190690 0.863278 0.698868
N6    N     N_R   0.547735 0.151142 0.853356 -0.552866
C89   C     C_R   0.516010 0.135493 0.818519 0.643493
C90   C     C_R   0.363136 0.106647 0.885786 -0.155468
C91   C     C_R   0.350639 0.081470 0.910898 -0.197596
C92   C     C_R   0.690044 0.092464 0.924049 -0.292975
C93   C     C_R   0.702120 0.119203 0.899733 0.501455
C94   C     C_R   0.537788 0.125577 0.879854 0.277948
O20   O     O_2   0.478955 0.096463 0.809178 -0.506688
C95   C     C_R   0.499717 0.237111 0.716166 -0.016604
C96   C     C_R   0.597006 0.274142 0.723467 -0.075263
C97   C     C_R   0.685994 0.286302 0.756809 -0.072067
C98   C     C_R   0.375178 0.229482 0.686352 0.379605
H21   H     H_    0.213377 0.067381 0.914720 0.149513
H22   H     H_    0.236257 0.111439 0.870720 0.194089
H23   H     H_    0.470319 0.112765 0.748099 0.199710
O21   O     O_2   0.826851 0.392351 0.681768 -0.475035
C99   C     C_R   0.832782 0.342353 0.734029 0.397323
H24   H     H_    0.344020 0.439320 0.585399 0.147430
H25   H     H_    0.332389 0.394773 0.629307 0.178343
C100  C     C_R   0.681061 0.279382 0.820441 -0.150761
C101  C     C_R   0.657444 0.255942 0.846658 0.657540
O22   O     O_2   0.609246 0.205750 0.897859 -0.470384
C102  C     C_R   0.809972 0.319696 0.760991 0.522384
H26   H     H_    0.713938 0.310261 0.829223 0.229159
H27   H     H_    0.818235 0.086034 0.938033 0.136340
C103  C     C_R   0.702729 0.178070 0.197312 0.670855
N7    N     N_R   0.549054 0.177638 0.174667 -0.535647
C104  C     C_R   0.409742 0.206446 0.180930 0.666421
C105  C     C_R   0.419050 0.236222 0.211119 -0.024692
C106  C     C_R   0.577289 0.237194 0.234194 -0.013010
C107  C     C_R   0.721532 0.208180 0.227066 -0.143720
C108  C     C_R   0.274311 0.265063 0.218680 -0.150300
C109  C     C_R   0.286647 0.294419 0.248667 -0.096523
C110  C     C_R   0.444835 0.295893 0.271728 0.027774
C111  C     C_R   0.591123 0.267213 0.264458 -0.082745
C112  C     C_R   0.750741 0.268437 0.287389 -0.176701
C113  C     C_R   0.895735 0.239421 0.279642 0.652223
C114  C     C_R   0.880396 0.209719 0.249938 -0.199995
C115  C     C_R   0.460148 0.325334 0.301992 0.665633
N8    N     N_R   0.615891 0.326335 0.324083 -0.549212
C116  C     C_R   0.759887 0.298694 0.317353 0.634238
O23   O     O_2   0.836024 0.149143 0.191423 -0.461545
O24   O     O_2   0.263440 0.206652 0.157853 -0.503100
H28   H     H_    0.150141 0.264908 0.201585 0.159497
H29   H     H_    0.171583 0.315943 0.253713 0.141670
O25   O     O_2   0.319822 0.352640 0.309391 -0.528774
O26   O     O_2   0.911813 0.300718 0.339475 -0.461441
H30   H     H_    0.994345 0.187946 0.244888 0.210809
C117  C     C_R   0.601037 0.347117 0.388864 -0.116926
H31   H     H_    0.572140 0.316745 0.391756 0.171229
C118  C     C_R   0.610501 0.376347 0.419034 -0.283800
H32   H     H_    0.590103 0.368116 0.444890 0.148300
C119  C     C_R   0.645959 0.415902 0.415918 -0.183311
C120  C     C_R   0.669336 0.426272 0.382064 0.324933
C121  C     C_R   0.666351 0.396547 0.351678 0.404331
C122  C     C_R   0.627859 0.356858 0.355034 0.224808
C123  C     C_R   0.685728 0.140087 0.119140 -0.135130
H33   H     H_    0.813686 0.158658 0.122549 0.203589
C124  C     C_R   0.673736 0.109844 0.089757 -0.241218
H34   H     H_    0.793451 0.105786 0.071190 0.185527
C125  C     C_R   0.508223 0.085638 0.083944 -0.239498
C126  C     C_R   0.355418 0.091762 0.108989 0.313700
C127  C     C_R   0.369380 0.122030 0.138664 0.608622
C128  C     C_R   0.534232 0.146540 0.143970 0.165447
O27   O     O_R   0.662230 0.032770 0.966890 -0.546439
O28   O     O_R   0.330090 0.043230 0.039150 -0.516426
O29   O     O_R   0.157350 0.967260 0.033130 -0.536552
C129  C     C_R   0.498610 0.053805 0.052296 0.762886
O30   O     O_R   0.332650 0.037450 0.967510 -0.550669
O31   O     O_R   0.159930 0.961430 0.960980 -0.542873
C130  C     C_R   0.502235 0.046223 0.956233 0.709106
O32   O     O_R   0.659640 0.038600 0.039040 -0.545045
O33   O     O_3   0.492510 0.975090 0.997960 -0.354052
V3    V     V_3+5 0.218600 0.004620 0.000380 1.473569
O34   O     O_R   0.830050 0.956730 0.960830 -0.540623
C131  C     C_R   0.999112 0.946043 0.947797 0.745341
O35   O     O_R   0.827490 0.962520 0.032470 -0.506683
C132  C     C_R   0.995830 0.953618 0.043568 0.811687
V4    V     V_3+5 0.718310 0.995320 0.999580 1.503593
O36   O     O_3   0.994270 0.024900 0.002040 -0.378754
F1    F     F_    0.369396 0.867057 0.852111 -0.683330
F2    F     F_    0.448337 0.604728 0.449791 -0.657837
O37   O     O_3   0.423416 0.655650 0.401904 -0.484544
C133  C     C_3   0.374995 0.689458 0.426619 -0.055261
H35   H     H_    0.350983 0.682399 0.453644 0.130712
H36   H     H_    0.245490 0.704198 0.417826 0.092173
H37   H     H_    0.497653 0.710644 0.428490 0.162885
O38   O     O_3   0.616492 0.717629 0.344255 -0.512372
C134  C     C_3   0.601161 0.754289 0.367147 -0.184044
H38   H     H_    0.575778 0.779184 0.352540 0.103613
H39   H     H_    0.731679 0.760245 0.384079 0.133703
H40   H     H_    0.474339 0.753076 0.384719 0.149829
F3    F     F_    0.702425 0.895194 0.049615 -0.623644
F4    F     F_    0.727249 0.844460 0.096760 -0.581788
O39   O     O_3   0.470708 0.674565 0.212556 -0.549401
C135  C     C_3   0.354371 0.653836 0.185292 -0.235493
H41   H     H_    0.254537 0.674027 0.174493 0.163685
H42   H     H_    0.269754 0.629557 0.194246 0.116202
H43   H     H_    0.450035 0.640221 0.163338 0.175308
O40   O     O_3   0.535749 0.639488 0.269721 -0.514690
C136  C     C_3   0.490300 0.601364 0.251248 -0.102975
H44   H     H_    0.337139 0.592322 0.254712 0.090363
H45   H     H_    0.582950 0.579599 0.261528 0.161691
H46   H     H_    0.525152 0.599434 0.222749 0.142478
O41   O     O_3   0.951374 0.353361 0.603946 -0.554101
C137  C     C_3   0.952283 0.320805 0.576055 -0.229410
H47   H     H_    0.975737 0.330422 0.550027 0.134987
H48   H     H_    0.816554 0.303104 0.575739 0.145959
H49   H     H_    0.073363 0.301086 0.580039 0.230166
O42   O     O_3   0.228066 0.252276 0.636258 -0.535913
C138  C     C_3   0.055951 0.271099 0.649741 -0.189676
H50   H     H_    0.072296 0.303712 0.652981 0.166836
H51   H     H_    0.009358 0.262198 0.675163 0.134616
H52   H     H_    0.938568 0.262355 0.630380 0.161285
F5    F     F_    0.496357 0.150962 0.696616 -0.685650
O43   O     O_3   0.236421 0.199634 0.685130 -0.547469
C139  C     C_3   0.225498 0.175689 0.651292 0.030782
H53   H     H_    0.361817 0.175302 0.635569 0.133675
H54   H     H_    0.101995 0.184908 0.636301 0.137451
H55   H     H_    0.195068 0.144793 0.654865 0.172774
O44   O     O_3   0.957783 0.374433 0.739649 -0.491805
C140  C     C_3   0.145505 0.361360 0.729007 -0.023686
H56   H     H_    0.154503 0.352860 0.699810 0.093147
H57   H     H_    0.193311 0.336391 0.742044 0.128173
H58   H     H_    0.248487 0.386179 0.736750 0.172541
F6    F     F_    0.688387 0.272908 0.880796 -0.601955
O45   O     O_3   0.875953 0.136717 0.892549 -0.558261
C141  C     C_3   0.959091 0.157074 0.924037 -0.179523
H59   H     H_    0.036338 0.136343 0.938360 0.112894
H60   H     H_    0.850671 0.174390 0.941769 0.174545
H61   H     H_    0.067789 0.178357 0.916889 0.194177
F7    F     F_    0.924872 0.328918 0.789809 -0.661023
F8    F     F_    0.053013 0.239376 0.300644 -0.630382
O46   O     O_3   0.707242 0.465141 0.378741 -0.559460
C142  C     C_3   0.531248 0.483413 0.372758 -0.193296
H62   H     H_    0.427662 0.483039 0.395029 0.118062
H63   H     H_    0.464573 0.469323 0.347372 0.171753
H64   H     H_    0.560867 0.514844 0.370899 0.161947
O47   O     O_3   0.690470 0.406756 0.318550 -0.546953
C143  C     C_3   0.888681 0.404421 0.309844 -0.150407
H65   H     H_    0.941714 0.373547 0.307531 0.170046
H66   H     H_    0.976691 0.424676 0.329388 0.158253
H67   H     H_    0.909231 0.413674 0.283693 0.157209
O48   O     O_3   0.188761 0.069101 0.104082 -0.530017
C144  C     C_3   0.206748 0.037198 0.122722 -0.123548
H68   H     H_    0.212306 0.047719 0.151772 0.178482
H69   H     H_    0.336154 0.018970 0.113876 0.078941
H70   H     H_    0.077583 0.017850 0.117276 0.138372
F9    F     F_    0.223116 0.126930 0.162721 -0.617115
O49   O     O_3   0.392103 0.616666 0.669015 -0.527909
C145  C     C_3   0.572310 0.631877 0.660410 -0.193039
H71   H     H_    0.558222 0.661799 0.652998 0.123716
H72   H     H_    0.644874 0.611199 0.638947 0.138241
H73   H     H_    0.665645 0.635012 0.684098 0.202546

loop_
_geom_bond_atom_site_label_1
_geom_bond_atom_site_label_2
_ccdc_geom_bond_type
C43   C56   A    
C64   O39   S    
C76   O42   S    
C109  H29   S    
C28   H10   S    
C63   H16   S    
C71   C78   A    
C95   C98   A    
C143  H67   S    
C136  H45   S    
C111  C112  A    
C80   C95   A    
C90   H22   S    
C6    C7    A    
C123  C128  A    
O33   V4    S    
C1    O6    A    
C54   O37   S    
C142  H62   S    
C141  H61   S    
C48   C49   A    
C23   O49   S    
C134  H40   S    
N6    C89   A    
N8    C122  S    
C125  C129  S    
C42   C132  S    
V4    O36   S    
C79   C92   A    
C102  F7    S    
O30   C130  A    
C13   C14   A    
C145  H71   S    
N7    C128  S    
C98   O43   S    
C99   C102  A    
C2    C119  S    
C15   C16   A    
C9    C16   A    
C56   H17   S    
C100  H26   S    
C145  H73   S    
C117  C118  A    
O5    C3    A    
C17   N2    A    
C47   C48   A    
C118  C119  A    
C112  C113  A    
V2    O10   S    
C36   H12   S    
C140  H58   S    
C44   C59   A    
O27   C130  A    
C35   H11   S    
O42   C138  S    
C127  F9    S    
C135  H43   S    
N1    C6    A    
C19   H5    S    
C144  H70   S    
C67   O19   S    
C104  O24   S    
C89   O20   S    
N8    C116  A    
C105  C106  A    
O8    V2    S    
N1    C30   S    
C88   O22   S    
C68   C77   A    
O41   C137  S    
C45   C61   A    
C86   C87   A    
C124  C125  A    
C140  H57   S    
C70   H24   S    
C32   C41   A    
C25   C26   A    
C136  H44   S    
C87   C101  A    
C11   C12   A    
C113  F8    S    
O1    V2    S    
C18   O14   S    
O7    V1    S    
C19   C20   A    
C69   H25   S    
N3    C32   A    
C40   C62   A    
C43   C55   A    
C116  O26   S    
C59   C62   A    
C107  C114  A    
C65   O40   S    
C36   C37   A    
C45   C64   A    
C92   H27   S    
C31   O15   S    
O28   V3    S    
O27   V4    S    
C8    C9    A    
N4    C58   S    
C74   C96   A    
C103  O23   S    
C106  C111  A    
C127  C128  A    
C5    O11   S    
N2    C24   S    
C52   O18   S    
C82   C86   A    
C81   C100  A    
C19   C24   A    
N5    C68   A    
C62   H15   S    
C8    C13   A    
C26   C27   A    
C69   C70   A    
C4    C21   S    
C83   F5    S    
C112  C116  A    
C44   C46   A    
C110  C115  A    
C33   C37   A    
C31   N3    A    
C38   C60   A    
C70   C78   A    
C61   C66   A    
O33   V3    S    
C25   C30   A    
O31   V3    S    
C139  H53   S    
C105  C108  A    
C126  O48   S    
C51   C52   A    
C134  H38   S    
O34   C131  A    
C85   C89   A    
C67   C75   A    
C109  C110  A    
O4    C2    A    
C138  H50   S    
O45   C141  S    
N4    C53   A    
C12   C17   A    
C139  H55   S    
C141  H60   S    
C125  C126  A    
C15   H3    S    
C25   H8    S    
C12   C13   A    
C52   N4    A    
C49   C50   A    
C137  H49   S    
O34   V4    S    
C123  H33   S    
C17   O13   S    
C120  C121  A    
C120  O46   S    
O2    C1    A    
C20   H6    S    
C123  C124  A    
O35   C132  A    
O39   C135  S    
C48   O38   S    
C114  H30   S    
O44   C140  S    
C97   C102  A    
O49   C145  S    
N3    C37   S    
C133  H36   S    
C50   C51   A    
C7    C10   A    
N6    C94   S    
C91   H21   S    
C144  H68   S    
C140  H56   S    
C7    C8    A    
C84   H23   S    
C137  H48   S    
C5    N1    A    
C117  H31   S    
C59   C60   A    
C28   C29   A    
C54   C58   A    
C103  C107  A    
C93   C94   A    
C74   C75   A    
C135  H42   S    
C20   C21   A    
C113  C114  A    
C72   O41   S    
C100  C101  A    
C69   C73   A    
O3    C4    A    
C81   C97   A    
C55   F2    S    
C108  H28   S    
C121  C122  A    
O32   V4    S    
C110  C111  A    
O35   V4    S    
C31   C39   A    
C124  H34   S    
O6    V2    S    
C10   H1    S    
C93   O45   S    
C138  H51   S    
O9    V2    S    
C87   C88   A    
C51   C65   A    
C136  H46   S    
C32   O17   S    
C142  H64   S    
O40   C136  S    
C56   C57   A    
C81   C82   A    
O2    V1    S    
C117  C122  A    
C3    C43   S    
C57   C58   A    
C75   C76   A    
C133  H37   S    
C99   O44   S    
C83   C84   A    
C90   C91   A    
C44   C47   A    
C63   C66   A    
C135  H41   S    
C90   C94   A    
C143  H65   S    
C106  C107  A    
C80   C82   A    
C71   H20   S    
C47   H14   S    
C14   C18   A    
O1    C2    A    
C68   O21   S    
C38   C39   A    
N2    C18   A    
V3    O36   S    
C126  C127  A    
C6    O12   S    
C41   C63   A    
C57   H18   S    
O5    V1    S    
C27   C28   A    
C92   C93   A    
C134  H39   S    
C33   F4    S    
C79   C91   A    
C104  C105  A    
C35   C42   A    
O30   V3    S    
C115  O25   S    
C88   N6    A    
C72   C73   A    
C5    C9    A    
C80   C83   A    
C29   F1    S    
C11   H2    S    
C96   C97   A    
C103  N7    A    
C142  H63   S    
C84   C85   A    
O37   C133  S    
C121  O47   S    
O4    V1    S    
C145  H72   S    
O29   C132  A    
V1    O10   S    
C85   C86   A    
C77   C99   A    
C144  H69   S    
N5    C73   S    
C101  F6    S    
C45   C46   A    
C133  H35   S    
C108  C109  A    
N7    C104  A    
C76   C98   A    
C38   C41   A    
C23   C24   A    
C53   O16   S    
C16   H4    S    
C79   C130  S    
C137  H47   S    
C74   C77   A    
O29   V3    S    
C141  H59   S    
C71   C72   A    
C143  H66   S    
C34   C42   A    
O7    V2    S    
C39   C40   A    
C67   N5    A    
O43   C139  S    
C22   H7    S    
C139  H54   S    
C10   C11   A    
C115  N8    A    
C33   C34   A    
C46   C50   A    
C22   C23   A    
C21   C22   A    
C49   C53   A    
C27   C131  S    
C54   C55   A    
C1    C78   S    
O28   C129  A    
C35   C36   A    
C129  O32   A    
C138  H52   S    
O31   C131  A    
C64   C65   A    
O3    V1    S    
C40   H13   S    
O48   C144  S    
C118  H32   S    
C119  C120  A    
C29   C30   A    
O9    C4    A    
O38   C134  S    
C34   F3    S    
C60   C61   A    
C95   C96   A    
O8    C3    A    
C26   H9    S    
O46   C142  S    
C14   C15   A    
C66   H19   S    
O47   C143  S    
