data_mof_unit_pretest_1887.cif
_audit_creation_date              2012-12-10T19:08:18-0500
_audit_creation_method            fapswitch 2.2
_symmetry_space_group_name_H-M    P1
_symmetry_Int_Tables_number       1
_space_group_crystal_system       triclinic
_cell_length_a                    25.581731
_cell_length_b                    34.564637
_cell_length_c                    21.488286
_cell_angle_alpha                 90.000015
_cell_angle_beta                  126.600221
_cell_angle_gamma                 90.0
_cell_volume                      15253.8431733

loop_
_atom_site_label
_atom_site_type_symbol
_atom_type_description
_atom_site_fract_x
_atom_site_fract_y
_atom_site_fract_z
_atom_type_partial_charge
Br1   Br    Br    0.154998 0.334921 0.289813 -0.026365
Br2   Br    Br    0.881089 0.757560 0.532325 -0.037689
Br3   Br    Br    0.881174 0.242251 0.532377 -0.034083
Br4   Br    Br    0.222319 0.835014 0.467860 -0.034351
Br5   Br    Br    0.722317 0.664986 0.467859 -0.034351
Br6   Br    Br    0.381174 0.257749 0.532377 -0.034083
Br7   Br    Br    0.381089 0.742439 0.532325 -0.037689
Br8   Br    Br    0.722794 0.335101 0.467793 -0.031748
Br9   Br    Br    0.740301 0.743202 0.710312 -0.041550
Br10  Br    Br    0.740297 0.257148 0.710186 -0.036212
Br11  Br    Br    0.155418 0.665079 0.289765 -0.036748
Br12  Br    Br    0.655419 0.834921 0.289766 -0.036747
Br13  Br    Br    0.240297 0.242852 0.710186 -0.036212
Br14  Br    Br    0.240301 0.756798 0.710312 -0.041549
Br15  Br    Br    0.654998 0.165078 0.289813 -0.026365
Br16  Br    Br    0.222794 0.164899 0.467793 -0.031748
C1    C     C_R   0.141649 0.250047 0.000051 0.522598
C2    C     C_3   0.757886 0.214319 0.980904 -0.140177
C3    C     C_R   0.981655 0.917906 0.933410 -0.114578
C4    C     C_R   0.481655 0.582094 0.933410 -0.114578
C5    C     C_R   0.466028 0.417899 0.021994 -0.113337
C6    C     C_R   0.518506 0.582118 0.066747 -0.112082
C7    C     C_R   0.534128 0.417890 0.978181 -0.114780
C8    C     C_R   0.000050 0.102476 0.000054 -0.014543
C9    C     C_R   0.000056 0.897524 0.000056 -0.017126
C10   C     C_R   0.500056 0.602476 0.000056 -0.017126
C11   C     C_R   0.500050 0.397524 0.000054 -0.014543
C12   C     C_R   0.000133 0.021313 0.000149 0.046837
C13   C     C_3   0.731816 0.759618 0.928602 -0.137830
C14   C     C_R   0.000128 0.978687 0.000131 0.045650
C15   C     C_R   0.500128 0.521313 0.000131 0.045650
C16   C     C_R   0.500133 0.478687 0.000149 0.046837
C17   C     C_R   0.000008 0.144866 0.000009 0.505976
C18   C     C_R   0.000011 0.855134 0.000011 0.506594
C19   C     C_R   0.500011 0.644866 0.000011 0.506593
C20   C     C_R   0.500008 0.355134 0.000009 0.505976
C21   C     C_R   0.999999 0.355192 0.000031 0.522871
C22   C     C_R   0.999999 0.644809 0.000044 0.519666
C23   C     C_R   0.499999 0.855191 0.000044 0.519665
C24   C     C_3   0.242021 0.214372 0.018880 -0.140159
C25   C     C_R   0.499999 0.144808 0.000031 0.522872
C26   C     C_R   0.051122 0.458375 0.064747 -0.110867
C27   C     C_R   0.942574 0.541618 0.972557 -0.110390
C28   C     C_R   0.948809 0.458433 0.935957 -0.110222
C29   C     C_R   0.057443 0.541586 0.028323 -0.110352
C30   C     C_R   0.557444 0.958414 0.028324 -0.110352
C31   C     C_R   0.448809 0.041567 0.935957 -0.110222
C32   C     C_R   0.442574 0.958382 0.972556 -0.110390
C33   C     C_R   0.551121 0.041625 0.064748 -0.110867
C34   C     C_R   0.051380 0.418141 0.064791 0.090595
C35   C     C_3   0.742021 0.285628 0.018880 -0.140159
C36   C     C_R   0.942346 0.581853 0.972209 0.090601
C37   C     C_R   0.948581 0.418198 0.935662 0.091341
C38   C     C_R   0.057676 0.581820 0.028429 0.091034
C39   C     C_R   0.557677 0.918180 0.028431 0.091034
C40   C     C_R   0.448582 0.081802 0.935661 0.091341
C41   C     C_R   0.442346 0.918147 0.972207 0.090601
C42   C     C_R   0.551379 0.081859 0.064792 0.090595
C43   C     C_R   0.999991 0.397645 0.000158 0.033361
C44   C     C_R   0.000002 0.602359 0.000211 0.033708
C45   C     C_R   0.500002 0.897641 0.000211 0.033707
C46   C     C_3   0.231816 0.740382 0.928602 -0.137830
C47   C     C_R   0.499991 0.102355 0.000158 0.033361
C48   C     C_R   0.999963 0.478761 0.000409 -0.020317
C49   C     C_R   0.000000 0.521245 0.000467 -0.020189
C50   C     C_R   0.500000 0.978755 0.000467 -0.020189
C51   C     C_R   0.499963 0.021239 0.000409 -0.020316
C52   C     C_3   0.740649 0.276037 0.947321 -0.119578
C53   C     C_3   0.222721 0.714405 0.980520 -0.137733
C54   C     C_3   0.259260 0.276093 0.052465 -0.120708
C55   C     C_3   0.777182 0.714459 0.019261 -0.139306
C56   C     C_3   0.277182 0.785541 0.019262 -0.139306
C57   C     C_3   0.257886 0.285681 0.980904 -0.140177
C58   C     C_3   0.759260 0.223907 0.052465 -0.120708
C59   C     C_3   0.722721 0.785595 0.980520 -0.137733
C60   C     C_3   0.240649 0.223963 0.947321 -0.119578
C61   C     C_3   0.768098 0.740435 0.071182 -0.140797
C62   C     C_3   0.198685 0.750005 0.999797 0.034099
C63   C     C_3   0.800815 0.250011 0.999204 0.036182
C64   C     C_3   0.801227 0.750059 0.000006 0.033571
C65   C     C_R   0.858398 0.750014 0.000029 0.512250
C66   C     C_3   0.199097 0.250065 0.000599 0.035837
C67   C     C_3   0.699097 0.249934 0.000599 0.035837
C68   C     C_3   0.301227 0.749941 0.000006 0.033571
C69   C     C_3   0.300815 0.249989 0.999204 0.036182
C70   C     C_3   0.698685 0.749995 0.999797 0.034099
C71   C     C_3   0.207551 0.775592 0.948646 0.140793
C72   C     C_3   0.802186 0.259471 0.069557 0.111580
C73   C     C_3   0.792352 0.775647 0.051138 0.136971
C74   C     C_3   0.197715 0.259524 0.930229 0.116072
C75   C     C_3   0.697715 0.240476 0.930229 0.116072
C76   C     C_R   0.858320 0.250021 0.999880 0.520175
C77   C     C_3   0.292352 0.724353 0.051138 0.136971
C78   C     C_3   0.302186 0.240529 0.069557 0.111580
C79   C     C_3   0.707551 0.724408 0.948646 0.140793
C80   C     C_R   0.216272 0.283605 0.418484 -0.127495
C81   C     C_R   0.745194 0.745074 0.581566 -0.126593
C82   C     C_R   0.745275 0.255102 0.581524 -0.125949
C83   C     C_R   0.216348 0.716366 0.418468 -0.127666
C84   C     C_R   0.716349 0.783633 0.418468 -0.127666
C85   C     C_R   0.245275 0.244898 0.581524 -0.125949
C86   C     C_R   0.245194 0.754926 0.581566 -0.126594
C87   C     C_R   0.141572 0.749988 0.999902 0.514910
C88   C     C_R   0.716272 0.216395 0.418484 -0.127495
C89   C     C_R   0.174999 0.284830 0.337825 0.000725
C90   C     C_R   0.783928 0.745780 0.662227 -0.002448
C91   C     C_R   0.783976 0.254387 0.662181 -0.001339
C92   C     C_R   0.175122 0.715156 0.337807 -0.001904
C93   C     C_R   0.675122 0.784844 0.337807 -0.001903
C94   C     C_R   0.283976 0.245613 0.662181 -0.001339
C95   C     C_R   0.283928 0.754220 0.662227 -0.002448
C96   C     C_R   0.674999 0.215170 0.337825 0.000725
C97   C     C_R   0.147642 0.250202 0.295363 0.020425
C98   C     C_R   0.641572 0.750012 0.999902 0.514909
C99   C     C_R   0.852018 0.750044 0.704675 0.020449
C100  C     C_R   0.852051 0.249993 0.704666 0.020418
C101  C     C_R   0.147621 0.749778 0.295368 0.020316
C102  C     C_R   0.647621 0.750222 0.295368 0.020316
C103  C     C_R   0.352051 0.250007 0.704666 0.020418
C104  C     C_R   0.352018 0.749956 0.704675 0.020449
C105  C     C_R   0.647642 0.249798 0.295363 0.020425
C106  C     C_R   0.161856 0.214867 0.335047 0.101722
C107  C     C_R   0.879952 0.753942 0.665023 0.101620
C108  C     C_R   0.879997 0.246003 0.665039 0.104942
C109  C     C_R   0.358320 0.249979 0.999880 0.520176
C110  C     C_R   0.161657 0.785090 0.335080 0.100244
C111  C     C_R   0.661656 0.714910 0.335080 0.100244
C112  C     C_R   0.379997 0.253997 0.665039 0.104942
C113  C     C_R   0.379952 0.746057 0.665023 0.101620
C114  C     C_R   0.661856 0.285133 0.335047 0.101722
C115  C     C_R   0.203284 0.213878 0.415941 0.044849
C116  C     C_R   0.840791 0.753203 0.584136 0.042694
C117  C     C_R   0.840863 0.246752 0.584153 0.043484
C118  C     C_R   0.203043 0.786062 0.415975 0.043920
C119  C     C_R   0.703042 0.713938 0.415975 0.043920
C120  C     C_R   0.358398 0.749986 0.000029 0.512250
C121  C     C_R   0.340863 0.253248 0.584153 0.043484
C122  C     C_R   0.340791 0.746797 0.584136 0.042694
C123  C     C_R   0.703284 0.286122 0.415941 0.044849
C124  C     C_R   0.230689 0.248420 0.457639 -0.014260
C125  C     C_R   0.773186 0.748616 0.542424 -0.014005
C126  C     C_R   0.773276 0.251447 0.542413 -0.014517
C127  C     C_R   0.230586 0.751529 0.457649 -0.014077
C128  C     C_R   0.730586 0.748471 0.457650 -0.014077
C129  C     C_R   0.273276 0.248552 0.542413 -0.014517
C130  C     C_R   0.273186 0.751384 0.542424 -0.014005
C131  C     C_R   0.641649 0.249953 0.000051 0.522598
C132  C     C_R   0.730689 0.251580 0.457639 -0.014260
C133  C     C_R   0.034871 0.041795 0.979053 0.108878
C134  C     C_R   0.019311 0.958197 0.067216 0.110974
C135  C     C_R   0.965366 0.041785 0.021216 0.108887
C136  C     C_R   0.980917 0.958221 0.933014 0.108096
C137  C     C_R   0.480917 0.541779 0.933014 0.108096
C138  C     C_R   0.465366 0.458215 0.021216 0.108887
C139  C     C_R   0.519311 0.541803 0.067216 0.110974
C140  C     C_R   0.534871 0.458205 0.979053 0.108878
C141  C     C_R   0.894444 0.249793 0.789672 0.522383
C142  C     C_3   0.268098 0.759565 0.071182 -0.140797
C143  C     C_R   0.104870 0.749698 0.210338 0.517932
C144  C     C_R   0.104869 0.250302 0.210337 0.522358
C145  C     C_R   0.894437 0.750216 0.789676 0.518090
C146  C     C_R   0.394437 0.749784 0.789676 0.518090
C147  C     C_R   0.604869 0.249698 0.210337 0.522359
C148  C     C_R   0.604870 0.750302 0.210338 0.517932
C149  C     C_R   0.394444 0.250207 0.789672 0.522383
C150  C     C_R   0.034128 0.082110 0.978181 -0.114780
C151  C     C_R   0.018506 0.917882 0.066747 -0.112082
C152  C     C_R   0.966028 0.082101 0.021994 -0.113337
F1    F     F_    0.070519 0.022810 0.960780 -0.161997
F2    F     F_    0.886022 0.600555 0.946025 -0.157087
F3    F     F_    0.898771 0.399547 0.871556 -0.156128
F4    F     F_    0.114014 0.600484 0.054547 -0.156973
F5    F     F_    0.614015 0.899516 0.054551 -0.156972
F6    F     F_    0.398772 0.100453 0.871554 -0.156128
F7    F     F_    0.386022 0.899445 0.946022 -0.157087
F8    F     F_    0.601230 0.100565 0.128758 -0.156734
F9    F     F_    0.162636 0.802242 0.895316 -0.148747
F10   F     F_    0.857631 0.269317 0.141785 -0.164616
F11   F     F_    0.837261 0.802303 0.104458 -0.151277
F12   F     F_    0.040026 0.977176 0.133576 -0.158881
F13   F     F_    0.142265 0.269361 0.857994 -0.159056
F14   F     F_    0.642265 0.230639 0.857994 -0.159056
F15   F     F_    0.337261 0.697697 0.104458 -0.151277
F16   F     F_    0.357631 0.230683 0.141785 -0.164616
F17   F     F_    0.662635 0.697758 0.895316 -0.148747
F18   F     F_    0.136753 0.181187 0.295132 -0.155047
F19   F     F_    0.945487 0.757496 0.704971 -0.154662
F20   F     F_    0.945520 0.242350 0.705011 -0.151029
F21   F     F_    0.136428 0.818768 0.295196 -0.157462
F22   F     F_    0.636427 0.681232 0.295196 -0.157462
F23   F     F_    0.929750 0.022791 0.039525 -0.161967
F24   F     F_    0.445520 0.257650 0.705011 -0.151029
F25   F     F_    0.445487 0.742504 0.704971 -0.154662
F26   F     F_    0.636753 0.318813 0.295133 -0.155047
F27   F     F_    0.960228 0.977222 0.866683 -0.162003
F28   F     F_    0.460227 0.522778 0.866683 -0.162003
F29   F     F_    0.429750 0.477210 0.039525 -0.161967
F30   F     F_    0.540026 0.522824 0.133576 -0.158881
F31   F     F_    0.570519 0.477190 0.960780 -0.161997
F32   F     F_    0.101231 0.399435 0.128757 -0.156734
H1    H     H_    0.090542 0.473623 0.115534 0.133225
H2    H     H_    0.033509 0.902569 0.118984 0.159048
H3    H     H_    0.938905 0.097400 0.038297 0.149687
H4    H     H_    0.966630 0.902613 0.881148 0.152684
H5    H     H_    0.466630 0.597387 0.881148 0.152684
H6    H     H_    0.438905 0.402600 0.038297 0.149687
H7    H     H_    0.533509 0.597431 0.118984 0.159048
H8    H     H_    0.561223 0.402583 0.961849 0.149366
H9    H     H_    0.282246 0.766937 0.129654 0.132224
H10   H     H_    0.764699 0.185340 0.964443 0.129252
H11   H     H_    0.717697 0.766973 0.870132 0.134819
H12   H     H_    0.897980 0.526360 0.951957 0.133632
H13   H     H_    0.235212 0.185390 0.035333 0.129728
H14   H     H_    0.735213 0.314610 0.035333 0.129728
H15   H     H_    0.217697 0.733027 0.870132 0.134819
H16   H     H_    0.264699 0.314660 0.964443 0.129252
H17   H     H_    0.782246 0.733063 0.129654 0.132224
H18   H     H_    0.733282 0.296989 0.903571 0.149658
H19   H     H_    0.200143 0.685232 0.965626 0.135826
H20   H     H_    0.266634 0.297060 0.096195 0.148315
H21   H     H_    0.799758 0.685285 0.034152 0.134931
H22   H     H_    0.299758 0.814715 0.034152 0.134931
H23   H     H_    0.909396 0.473727 0.885245 0.134245
H24   H     H_    0.766634 0.202940 0.096195 0.148315
H25   H     H_    0.700143 0.814768 0.965626 0.135826
H26   H     H_    0.233282 0.203011 0.903571 0.149658
H27   H     H_    0.236784 0.310252 0.451001 0.139544
H28   H     H_    0.692875 0.742134 0.549042 0.140489
H29   H     H_    0.692968 0.258134 0.548976 0.141457
H30   H     H_    0.236979 0.689725 0.450967 0.139466
H31   H     H_    0.736979 0.810275 0.450967 0.139466
H32   H     H_    0.192968 0.241866 0.548976 0.141457
H33   H     H_    0.192876 0.757866 0.549042 0.140489
H34   H     H_    0.102033 0.526302 0.048994 0.133570
H35   H     H_    0.736784 0.189747 0.451001 0.139544
H36   H     H_    0.602034 0.973698 0.048996 0.133570
H37   H     H_    0.409397 0.026273 0.885244 0.134245
H38   H     H_    0.397979 0.973640 0.951954 0.133633
H39   H     H_    0.590541 0.026377 0.115536 0.133225
H40   H     H_    0.061223 0.097417 0.961849 0.149366
O1    O     O_3   0.000000 0.250010 0.000000 -0.461366
O2    O     O_R   0.359980 0.227250 0.954550 -0.543990
O3    O     O_R   0.359980 0.772750 0.954550 -0.536926
O4    O     O_R   0.640020 0.227250 0.045450 -0.544429
O5    O     O_R   0.944020 0.227270 0.826530 -0.518230
O6    O     O_R   0.055980 0.772730 0.173470 -0.519620
O7    O     O_R   0.055980 0.227270 0.173470 -0.516376
O8    O     O_R   0.944020 0.772730 0.826530 -0.520781
O9    O     O_R   0.444020 0.727270 0.826530 -0.520782
O10   O     O_R   0.555980 0.272730 0.173470 -0.516376
O11   O     O_R   0.555980 0.727270 0.173470 -0.519620
O12   O     O_3   1.000000 0.749990 0.000000 -0.463900
O13   O     O_R   0.444020 0.272730 0.826530 -0.518230
O14   O     O_R   0.008020 0.163280 0.954510 -0.543200
O15   O     O_R   0.991980 0.836720 0.045490 -0.534640
O16   O     O_R   0.991980 0.163280 0.045490 -0.537197
O17   O     O_R   0.008020 0.836720 0.954510 -0.539209
O18   O     O_R   0.508020 0.663280 0.954510 -0.539209
O19   O     O_R   0.491980 0.336720 0.045490 -0.537197
O20   O     O_R   0.491980 0.663280 0.045490 -0.534640
O21   O     O_R   0.508020 0.336720 0.954510 -0.543200
O22   O     O_R   0.053480 0.336740 0.045470 -0.520201
O23   O     O_3   0.500000 0.750010 0.000000 -0.463900
O24   O     O_R   0.946520 0.663260 0.954530 -0.520164
O25   O     O_R   0.946520 0.336740 0.954530 -0.520124
O26   O     O_R   0.053480 0.663260 0.045470 -0.519991
O27   O     O_R   0.553480 0.836740 0.045470 -0.519991
O28   O     O_R   0.446520 0.163260 0.954530 -0.520124
O29   O     O_R   0.446520 0.836740 0.954530 -0.520163
O30   O     O_R   0.553480 0.163260 0.045470 -0.520201
O31   O     O_R   0.882520 0.272750 0.826550 -0.528992
O32   O     O_R   0.117480 0.727250 0.173450 -0.532343
O33   O     O_R   0.117480 0.272750 0.173450 -0.531193
O34   O     O_3   0.500000 0.249990 0.000000 -0.461366
O35   O     O_R   0.882520 0.727250 0.826550 -0.530942
O36   O     O_R   0.382520 0.772750 0.826550 -0.530942
O37   O     O_R   0.617480 0.227250 0.173450 -0.531193
O38   O     O_R   0.617480 0.772750 0.173450 -0.532343
O39   O     O_R   0.382520 0.227250 0.826550 -0.528992
O40   O     O_R   0.094550 0.227270 0.954490 -0.526791
O41   O     O_R   0.905450 0.772730 0.045510 -0.522060
O42   O     O_R   0.905450 0.227270 0.045510 -0.531801
O43   O     O_R   0.094550 0.772730 0.954490 -0.516965
O44   O     O_R   0.594550 0.727270 0.954490 -0.516965
O45   O     O_R   0.140020 0.272750 0.045450 -0.544429
O46   O     O_R   0.405450 0.272730 0.045510 -0.531801
O47   O     O_R   0.405450 0.727270 0.045510 -0.522060
O48   O     O_R   0.594550 0.272730 0.954490 -0.526791
O49   O     O_R   0.859980 0.727250 0.954550 -0.536926
O50   O     O_R   0.859980 0.272750 0.954550 -0.543989
O51   O     O_R   0.140020 0.727250 0.045450 -0.537764
O52   O     O_R   0.640020 0.772750 0.045450 -0.537764
Zn1   Zn    Zn3+2 0.923580 0.282490 0.935040 0.969907
Zn2   Zn    Zn3+2 0.988550 0.782480 0.064990 0.969462
Zn3   Zn    Zn3+2 0.988550 0.217520 0.064990 0.966588
Zn4   Zn    Zn3+2 0.011450 0.782480 0.935010 0.970734
Zn5   Zn    Zn3+2 0.511450 0.717520 0.935010 0.970734
Zn6   Zn    Zn3+2 0.488550 0.282480 0.064990 0.966588
Zn7   Zn    Zn3+2 0.488550 0.717520 0.064990 0.969461
Zn8   Zn    Zn3+2 0.511450 0.282480 0.935010 0.966909
Zn9   Zn    Zn3+2 0.076420 0.717510 0.064960 0.967870
Zn10  Zn    Zn3+2 0.076420 0.282490 0.064960 0.970160
Zn11  Zn    Zn3+2 0.923580 0.717510 0.935040 0.967457
Zn12  Zn    Zn3+2 0.423580 0.782490 0.935040 0.967457
Zn13  Zn    Zn3+2 0.576420 0.217510 0.064960 0.970160
Zn14  Zn    Zn3+2 0.576420 0.782490 0.064960 0.967870
Zn15  Zn    Zn3+2 0.423580 0.217510 0.935040 0.969907
Zn16  Zn    Zn3+2 0.011450 0.217520 0.935010 0.966909

loop_
_geom_bond_atom_site_label_1
_geom_bond_atom_site_label_2
_ccdc_geom_bond_type
O40   Zn16  S    
O19   Zn6   S    
C55   H21   S    
C35   C67   S    
C101  C143  S    
O50   Zn1   S    
C58   C67   S    
Br10  C91   S    
C28   C48   A    
C61   C73   S    
C108  C117  A    
C34   C43   A    
C83   C127  A    
C2    H10   S    
C53   C77   S    
C23   O27   A    
O42   Zn3   S    
O30   Zn13  S    
C55   C79   S    
C150  H40   S    
O44   Zn5   S    
C20   O19   A    
C31   C51   A    
O13   Zn8   S    
C39   F5    S    
C115  C124  A    
C118  C127  A    
C28   C37   A    
C88   H35   S    
C97   C106  A    
O10   Zn6   S    
C30   C39   A    
C101  C110  A    
O5    Zn16  S    
C9    C18   S    
C103  C112  A    
C84   C93   A    
C86   C95   A    
C93   C102  A    
C23   C45   S    
C111  F22   S    
C99   C107  A    
C65   O41   A    
C29   H34   S    
C145  O8    A    
C84   C128  A    
C125  C128  S    
C36   F2    S    
C85   C94   A    
O6    Zn2   S    
C24   C60   S    
C18   O17   A    
C40   F6    S    
C30   H36   S    
C38   F4    S    
C71   F9    S    
C59   C70   S    
O39   Zn15  S    
C102  C148  S    
O48   Zn8   S    
C28   H23   S    
C56   C68   S    
C139  F30   S    
C16   C138  A    
C25   C47   S    
C26   C48   A    
C88   C96   A    
O22   Zn10  S    
C124  C129  S    
O29   Zn12  S    
C41   C45   A    
C67   C75   S    
C98   O52   A    
C90   C99   A    
C20   O21   A    
O27   Zn14  S    
C77   F15   S    
C61   H17   S    
C13   C64   S    
C68   C77   S    
C54   C66   S    
C1    O40   A    
C70   C79   S    
C10   C19   S    
C81   H28   S    
C110  C118  A    
C75   F14   S    
C76   O50   A    
C95   C104  A    
C60   C69   S    
Br1   C89   S    
C62   C71   S    
C107  C116  A    
C105  C114  A    
C33   H39   S    
C32   C41   A    
C83   C92   A    
C137  F28   S    
C85   C129  A    
C117  C126  A    
C133  F1    S    
C89   C97   A    
C57   C74   S    
C27   C36   A    
C106  F18   S    
C105  C147  S    
C1    C66   S    
C151  H2    S    
Br16  C115  S    
C21   O22   A    
C76   O42   A    
C36   C44   A    
O17   Zn4   S    
C16   C140  A    
C146  O36   A    
C62   C142  S    
C57   H16   S    
O14   Zn16  S    
C103  C149  S    
C104  C146  S    
C142  H9    S    
C50   C51   S    
C12   C133  A    
C82   C126  A    
C4    H5    S    
O15   Zn2   S    
C6    C139  A    
C123  C132  A    
C4    C137  A    
C104  C113  A    
C24   C66   S    
C59   H25   S    
O33   Zn10  S    
C108  F20   S    
C147  O37   A    
C112  F24   S    
C5    H6    S    
C99   C145  S    
C14   C136  A    
C15   C16   S    
C74   F13   S    
O25   Zn1   S    
C109  O2    A    
C57   C69   S    
C21   C43   S    
C26   C34   A    
C22   C44   S    
C35   H14   S    
C29   C49   A    
C140  F31   S    
C102  C111  A    
C106  C115  A    
C55   C61   S    
C56   C71   S    
Br4   C118  S    
C116  C125  A    
Br5   C119  S    
C46   C68   S    
C120  O3    A    
Br15  C96   S    
C147  O10   A    
C24   C78   S    
C94   C103  A    
C80   C124  A    
C55   C64   S    
C72   F10   S    
O20   Zn7   S    
O23   Zn12  S    
Br6   C121  S    
C96   C105  A    
O4    Zn13  S    
C122  C130  A    
C39   C45   A    
C85   H32   S    
C149  O13   A    
C77   C142  S    
C91   C100  A    
C59   C73   S    
C12   C135  A    
Br11  C92   S    
C32   C50   A    
C120  O47   A    
C65   O49   A    
C23   O29   A    
O1    Zn10  S    
C127  C130  S    
C80   C89   A    
C46   H15   S    
C88   C132  A    
O28   Zn15  S    
O37   Zn13  S    
O47   Zn7   S    
C121  C129  A    
C17   O14   A    
C54   C78   S    
C111  C119  A    
C30   C50   A    
C146  O9    A    
O1    Zn1   S    
C14   C134  A    
O18   Zn5   S    
C141  O31   A    
C58   H24   S    
C64   C73   S    
O31   Zn1   S    
C31   H37   S    
C2    C63   S    
Br2   C116  S    
O23   Zn7   S    
C5    C11   A    
C7    C140  A    
C19   O18   A    
C78   F16   S    
C114  C123  A    
C92   C101  A    
C63   C72   S    
O34   Zn15  S    
C13   H11   S    
C84   H31   S    
C29   C38   A    
O11   Zn7   S    
C82   C91   A    
C46   C53   S    
C35   C72   S    
C8    C150  A    
C143  O6    A    
O34   Zn8   S    
O16   Zn3   S    
C32   H38   S    
C27   C49   A    
C54   C57   S    
C21   O25   A    
C27   H12   S    
C81   C125  A    
C81   C90   A    
C19   O20   A    
O49   Zn11  S    
C144  O7    A    
O51   Zn9   S    
O52   Zn14  S    
C79   F17   S    
C134  F12   S    
C143  O32   A    
C109  O46   A    
C68   C120  S    
C100  C108  A    
C53   H19   S    
C17   O16   A    
O23   Zn14  S    
C114  F26   S    
O32   Zn9   S    
O1    Zn3   S    
Br7   C122  S    
C15   C139  A    
C11   C20   S    
C46   C71   S    
O46   Zn6   S    
C8    C17   S    
C66   C74   S    
C48   C49   S    
O24   Zn11  S    
C131  O4    A    
C134  C151  A    
C3    H4    S    
C6    H7    S    
O23   Zn5   S    
C37   F3    S    
C2    C75   S    
O1    Zn16  S    
C86   H33   S    
O2    Zn15  S    
C6    C10   A    
C25   O28   A    
O12   Zn9   S    
C58   C72   S    
O34   Zn13  S    
C60   C74   S    
O9    Zn5   S    
O3    Zn12  S    
C7    H8    S    
C69   C109  S    
C37   C43   A    
C38   C44   A    
C9    C151  A    
C4    C10   A    
Br8   C123  S    
O12   Zn2   S    
C8    C152  A    
O34   Zn6   S    
O35   Zn11  S    
C135  C152  A    
O7    Zn3   S    
C52   C75   S    
C56   C142  S    
O8    Zn4   S    
C87   O51   A    
C113  C122  A    
C24   H13   S    
C5    C138  A    
C7    C11   A    
C145  O35   A    
O38   Zn14  S    
C135  F23   S    
C2    C58   S    
C41   F7    S    
C148  O38   A    
C53   C62   S    
C149  O39   A    
C87   O43   A    
Br12  C93   S    
C15   C137  A    
Br14  C95   S    
C60   H26   S    
C80   H27   S    
C126  C132  S    
C148  O11   A    
C13   C79   S    
C138  F29   S    
C34   F32   S    
Br9   C90   S    
C54   H20   S    
C33   C42   A    
C18   O15   A    
Br3   C117  S    
C110  F21   S    
C52   H18   S    
C112  C121  A    
Br13  C94   S    
C22   O24   A    
O41   Zn2   S    
C82   H29   S    
C1    O45   A    
C69   C78   S    
O43   Zn4   S    
C56   H22   S    
O26   Zn9   S    
C3    C136  A    
C40   C47   A    
C25   O30   A    
O12   Zn11  S    
C63   C76   S    
O36   Zn12  S    
C67   C131  S    
C131  O48   A    
C98   O44   A    
C119  C128  A    
O21   Zn8   S    
C61   C70   S    
C83   H30   S    
C42   C47   A    
C33   C51   A    
C136  F27   S    
C62   C87   S    
O12   Zn4   S    
C42   F8    S    
C133  C150  A    
C64   C65   S    
C113  F25   S    
C13   C59   S    
C152  H3    S    
O45   Zn10  S    
C70   C98   S    
C12   C14   S    
C22   O26   A    
C100  C141  S    
C86   C130  A    
C141  O5    A    
C52   C63   S    
C35   C52   S    
C73   F11   S    
C97   C144  S    
C107  F19   S    
C3    C9    A    
C31   C40   A    
C26   H1    S    
C144  O33   A    
