data_mof_unit_pretest_1112.cif
_audit_creation_date              2012-12-10T17:55:05-0500
_audit_creation_method            fapswitch 2.2
_symmetry_space_group_name_H-M    P1
_symmetry_Int_Tables_number       1
_space_group_crystal_system       triclinic
_cell_length_a                    8.72231
_cell_length_b                    10.783277
_cell_length_c                    9.567747
_cell_angle_alpha                 90.696766
_cell_angle_beta                  98.361608
_cell_angle_gamma                 90.671561
_cell_volume                      890.180772687

loop_
_atom_site_label
_atom_site_type_symbol
_atom_type_description
_atom_site_fract_x
_atom_site_fract_y
_atom_site_fract_z
_atom_type_partial_charge
C1    C     C_R   0.494556 0.262453 0.498550 0.838767
C2    C     C_R   0.505448 0.737547 0.501450 0.838747
C3    C     C_R   0.203764 0.500074 0.463540 0.913139
C4    C     C_R   0.796236 0.499926 0.536460 0.913106
C5    C     C_2   0.037509 0.500191 0.443769 -0.290166
C6    C     C_2   0.962491 0.499810 0.556230 -0.290210
C7    C     C_R   0.589916 0.067417 0.417368 -0.179563
C8    C     C_R   0.410091 0.932585 0.582631 -0.179507
C9    C     C_R   0.603344 0.939142 0.421498 -0.009120
C10   C     C_R   0.396657 0.060861 0.578493 -0.009096
C11   C     C_R   0.510012 0.871668 0.503622 -0.117846
C12   C     C_R   0.489995 0.128334 0.496377 -0.117874
C13   C     C_R   0.407442 0.418568 0.059025 0.101875
C14   C     C_R   0.592585 0.581419 0.940973 0.101875
C15   C     C_R   0.408213 0.419196 0.911051 -0.051082
C16   C     C_R   0.591793 0.580804 0.088948 -0.051112
Cu1   Cu    Cu3+1 0.500000 0.500020 0.640660 1.017406
Cu2   Cu    Cu3+1 0.500000 0.499980 0.359340 1.017420
H1    H     H_    0.976677 0.500655 0.336208 0.197881
H2    H     H_    0.023322 0.499346 0.663791 0.197889
H3    H     H_    0.663145 0.121091 0.357467 0.197530
H4    H     H_    0.336863 0.878912 0.642530 0.197492
H5    H     H_    0.334791 0.354814 0.843209 0.161431
H6    H     H_    0.665226 0.645178 0.156787 0.161443
N1    N     N_R   0.500040 0.500030 0.852080 -0.215333
N2    N     N_R   0.499960 0.499970 0.147920 -0.215328
O1    O     O_R   0.499990 0.319660 0.618740 -0.576558
O2    O     O_R   0.500010 0.680340 0.381260 -0.576557
O3    O     O_R   0.499990 0.319630 0.381170 -0.574794
O4    O     O_R   0.500010 0.680370 0.618830 -0.574747
O5    O     O_R   0.274840 0.500010 0.591370 -0.576185
O6    O     O_R   0.725160 0.499990 0.408630 -0.576163
O7    O     O_R   0.274830 0.499980 0.353800 -0.563357
O8    O     O_R   0.725170 0.500020 0.646200 -0.563411
C17   C     C_2   0.721181 0.880604 0.345245 0.837753
O9    O     O_2   0.791664 0.789685 0.393592 -0.617665
O10   O     O_R   0.755389 0.932426 0.219891 -0.729749
H7    H     H_    0.837639 0.884759 0.177848 0.341382
C18   C     C_2   0.278798 0.119396 0.654721 0.837754
O11   O     O_2   0.208299 0.210300 0.606343 -0.617637
O12   O     O_R   0.244584 0.067593 0.780082 -0.729772
H8    H     H_    0.162312 0.115253 0.822101 0.341375
C19   C     C_2   0.305962 0.326628 0.112808 0.870458
O13   O     O_2   0.174015 0.354306 0.128416 -0.586473
O14   O     O_R   0.356549 0.204884 0.133758 -0.731272
H9    H     H_    0.275695 0.149133 0.167979 0.341613
C20   C     C_2   0.694170 0.673293 0.887199 0.870451
O15   O     O_2   0.826137 0.645556 0.871718 -0.586524
O16   O     O_R   0.643654 0.795045 0.866113 -0.731277
H10   H     H_    0.724563 0.850744 0.831901 0.341594

loop_
_geom_bond_atom_site_label_1
_geom_bond_atom_site_label_2
_ccdc_geom_bond_type
C8    H4    S    
C19   O13   D    
C14   C20   S    
C5    H1    S    
C19   O14   S    
O12   H8    S    
C17   O9    D    
Cu2   N2    S    
C2    O4    A    
Cu1   N1    S    
C1    O3    A    
Cu1   Cu2   S    
C16   H6    S    
Cu2   O3    S    
O14   H9    S    
C3    O5    A    
Cu1   O4    S    
C9    C11   A    
C4    O6    A    
C1    C12   S    
C10   C12   A    
C6    H2    S    
C8    C11   A    
C2    C11   S    
C15   H5    S    
C17   O10   S    
O10   H7    S    
C4    O8    A    
C13   C15   A    
C14   N1    A    
C16   N2    A    
C5    C6    D    
Cu1   O5    S    
Cu2   O7    S    
C14   C16   A    
C13   N2    A    
C15   N1    A    
C4    C6    S    
Cu2   O6    S    
Cu1   O8    S    
C3    O7    A    
C9    C17   S    
Cu1   O1    S    
C7    C9    A    
C13   C19   S    
Cu2   O2    S    
C18   O12   S    
C20   O16   S    
O16   H10   S    
C18   O11   D    
C1    O1    A    
C2    O2    A    
C7    C12   A    
C7    H3    S    
C8    C10   A    
C20   O15   D    
C10   C18   S    
C3    C5    S    
