data_mof_unit_pretest_820.cif
_audit_creation_date              2012-12-10T20:42:41-0500
_audit_creation_method            fapswitch 2.2
_symmetry_space_group_name_H-M    P1
_symmetry_Int_Tables_number       1
_space_group_crystal_system       triclinic
_cell_length_a                    8.887771
_cell_length_b                    10.726526
_cell_length_c                    9.951201
_cell_angle_alpha                 88.81356
_cell_angle_beta                  90.190373
_cell_angle_gamma                 90.827389
_cell_volume                      948.390197364

loop_
_atom_site_label
_atom_site_type_symbol
_atom_type_description
_atom_site_fract_x
_atom_site_fract_y
_atom_site_fract_z
_atom_type_partial_charge
Br1   Br    Br    0.705358 0.148693 0.260469 -0.530813
Br2   Br    Br    0.142942 0.845157 0.571064 -0.434921
Br3   Br    Br    0.146103 0.152614 0.593339 -0.498466
Br4   Br    Br    0.762275 0.658139 0.835979 -0.461251
C1    C     C_R   0.502268 0.260437 0.501101 0.924224
C2    C     C_R   0.380815 0.452041 0.929632 0.121589
C3    C     C_3   0.325576 0.321206 0.925869 -0.471671
C4    C     C_R   0.219031 0.499845 0.499830 0.956257
C5    C     C_3   0.321047 0.321818 0.078240 -0.021586
C6    C     C_R   0.499803 0.739403 0.499064 0.928855
C7    C     C_R   0.780976 0.499919 0.500116 0.952628
C8    C     C_1   0.065498 0.499676 0.499682 -0.111499
C9    C     C_1   0.934494 0.499709 0.500074 -0.113321
C10   C     C_R   0.452918 0.059826 0.611786 -0.031006
C11   C     C_R   0.513660 0.128584 0.503671 -0.110795
C12   C     C_R   0.585460 0.937630 0.400081 -0.213946
C13   C     C_R   0.591234 0.066527 0.401437 0.270547
C14   C     C_3   0.145897 0.232998 0.245218 -0.591582
C15   C     C_3   0.768193 0.722299 0.161133 -0.623890
C16   C     C_R   0.506583 0.871211 0.499650 -0.076187
C17   C     C_R   0.449119 0.932953 0.608700 0.018847
C18   C     C_3   0.301975 0.920469 0.680134 0.103144
C19   C     C_3   0.306020 0.062878 0.686424 0.081760
C20   C     C_R   0.379260 0.453641 0.071655 0.089624
C21   C     C_R   0.615657 0.552740 0.071035 0.188296
C22   C     C_R   0.611414 0.558768 0.927573 0.241761
H1    H     H_    0.414111 0.259638 0.887235 0.194090
H2    H     H_    0.180271 0.136305 0.223586 0.252407
H3    H     H_    0.844861 0.547615 0.107234 0.232457
H4    H     H_    0.861166 0.760662 0.097674 0.250924
H5    H     H_    0.799817 0.736005 0.267750 0.235735
H6    H     H_    0.664032 0.774274 0.136370 0.232497
H7    H     H_    0.400631 0.255036 0.126446 0.204616
H8    H     H_    0.640379 0.890493 0.320420 0.173965
H9    H     H_    0.315123 0.874265 0.780447 0.125505
H10   H     H_    0.321113 0.092750 0.791300 0.111500
H11   H     H_    0.213720 0.313044 0.876145 0.243188
H12   H     H_    0.108091 0.394519 0.128861 0.244020
H13   H     H_    0.025518 0.231549 0.273971 0.275038
H14   H     H_    0.213123 0.268733 0.330308 0.248362
N1    N     N_R   0.499010 0.499140 0.142800 -0.131781
N2    N     N_R   0.499010 0.499180 0.857150 -0.137962
N3    N     N_2   0.167617 0.312576 0.127982 -0.289467
N4    N     N_2   0.748531 0.590317 0.139389 -0.258075
O1    O     O_R   0.500020 0.316790 0.614690 -0.614606
O2    O     O_R   0.500000 0.316760 0.385350 -0.602487
O3    O     O_R   0.285350 0.500020 0.614650 -0.590331
O4    O     O_R   0.285340 0.499980 0.385310 -0.629234
O5    O     O_R   0.500000 0.683240 0.614650 -0.584509
O6    O     O_R   0.499980 0.683210 0.385310 -0.621298
O7    O     O_R   0.714660 0.500020 0.614690 -0.567981
O8    O     O_R   0.714650 0.499980 0.385350 -0.596558
Zn1   Zn    Zn3+2 0.500010 0.500020 0.653130 1.024717
Zn2   Zn    Zn3+2 0.499990 0.499980 0.346870 0.988670

loop_
_geom_bond_atom_site_label_1
_geom_bond_atom_site_label_2
_ccdc_geom_bond_type
C10   C19   S    
Br2   C18   S    
Br4   C22   S    
C14   H13   S    
C4    O4    A    
C5    C20   S    
C2    C3    S    
C18   H9    S    
C4    C8    S    
C15   H5    S    
C3    H1    S    
Br3   C19   S    
C15   H4    S    
O3    Zn1   S    
C15   N4    S    
C12   C16   A    
C2    C20   A    
O2    Zn2   S    
C3    H11   S    
C4    O3    A    
O1    Zn1   S    
H12   N3    S    
N2    Zn1   S    
C17   C18   S    
C8    C9    T    
O4    Zn2   S    
C20   N1    A    
C7    C9    S    
O6    Zn2   S    
C1    O1    A    
C5    H7    S    
O5    Zn1   S    
C15   H6    S    
C21   N4    S    
C7    O7    A    
O8    Zn2   S    
H3    N4    S    
C2    N2    A    
N1    Zn2   S    
C1    C11   S    
C5    N3    S    
C14   N3    S    
C10   C17   A    
C6    O6    A    
C14   H2    S    
C16   C17   A    
C22   N2    A    
C11   C13   A    
C19   H10   S    
C1    O2    A    
C21   N1    A    
C3    C5    S    
C14   H14   S    
C10   C11   A    
C7    O8    A    
C12   H8    S    
C21   C22   A    
C18   C19   S    
C6    O5    A    
Br1   C13   S    
C6    C16   S    
C12   C13   A    
O7    Zn1   S    
