data_mof_unit_pretest_1662.cif
_audit_creation_date              2012-12-10T17:31:09-0500
_audit_creation_method            fapswitch 2.2
_symmetry_space_group_name_H-M    P1
_symmetry_Int_Tables_number       1
_space_group_crystal_system       triclinic
_cell_length_a                    30.38987
_cell_length_b                    30.627666
_cell_length_c                    24.511734
_cell_angle_alpha                 90.0
_cell_angle_beta                  127.661649
_cell_angle_gamma                 90.000068
_cell_volume                      18060.9460439

loop_
_atom_site_label
_atom_site_type_symbol
_atom_type_description
_atom_site_fract_x
_atom_site_fract_y
_atom_site_fract_z
_atom_type_partial_charge
C1    C     C_R   0.810828 0.809877 0.501410 0.754569
C2    C     C_R   0.535106 0.749189 0.070006 0.404559
C3    C     C_3   0.844887 0.155490 0.501441 0.137157
C4    C     C_3   0.595218 0.593001 0.497206 0.128178
C5    C     C_3   0.404778 0.592996 0.502795 0.128203
C6    C     C_3   0.095222 0.092996 0.497205 0.128216
C7    C     C_3   0.904787 0.093007 0.502792 0.128142
C8    C     C_3   0.651632 0.598847 0.570620 -0.397995
C9    C     C_3   0.348348 0.598820 0.429393 -0.398032
C10   C     C_3   0.151652 0.098820 0.570607 -0.398036
C11   C     C_3   0.848396 0.098885 0.429362 -0.397940
C12   C     C_3   0.563776 0.637129 0.476441 -0.394133
C13   C     C_R   0.964895 0.249189 0.929993 0.404562
C14   C     C_3   0.436204 0.637131 0.523510 -0.394136
C15   C     C_3   0.063797 0.137131 0.476491 -0.394143
C16   C     C_3   0.936251 0.137128 0.523625 -0.394131
C17   C     C_R   0.060807 0.940476 0.499932 0.746347
C18   C     C_R   0.939194 0.940475 0.500068 0.746379
C19   C     C_R   0.560807 0.440476 0.499932 0.746361
C20   C     C_R   0.439193 0.440477 0.500068 0.746352
C21   C     C_R   0.438571 0.558672 0.500565 0.757112
C22   C     C_R   0.561425 0.558677 0.499435 0.757120
C23   C     C_R   0.938580 0.058683 0.500564 0.757116
C24   C     C_R   0.035105 0.249189 0.070006 0.404561
C25   C     C_R   0.061429 0.058672 0.499435 0.757105
C26   C     C_R   0.816179 0.750130 0.632523 0.779236
C27   C     C_R   0.183821 0.750130 0.367478 0.779226
C28   C     C_R   0.316179 0.250130 0.632523 0.779232
C29   C     C_R   0.683821 0.250130 0.367477 0.779242
C30   C     C_R   0.612459 0.786097 0.254881 -0.189187
C31   C     C_R   0.387511 0.786110 0.745118 -0.189189
C32   C     C_R   0.112467 0.286099 0.254881 -0.189186
C33   C     C_R   0.887512 0.286110 0.745118 -0.189189
C34   C     C_R   0.576811 0.786068 0.182912 -0.159968
C35   C     C_3   0.899838 0.825044 0.517955 -0.354899
C36   C     C_R   0.423160 0.786080 0.817087 -0.159963
C37   C     C_R   0.076818 0.286070 0.182912 -0.159965
C38   C     C_R   0.923161 0.286080 0.817087 -0.159965
C39   C     C_R   0.573217 0.749274 0.146147 0.058409
C40   C     C_R   0.426783 0.749274 0.853851 0.058406
C41   C     C_R   0.073217 0.249275 0.146147 0.058403
C42   C     C_R   0.926782 0.249275 0.853851 0.058408
C43   C     C_R   0.606387 0.712657 0.182797 -0.160410
C44   C     C_R   0.393642 0.712644 0.817201 -0.160406
C45   C     C_R   0.106380 0.212654 0.182797 -0.160406
C46   C     C_3   0.100169 0.825043 0.482064 -0.354898
C47   C     C_R   0.893641 0.212644 0.817201 -0.160405
C48   C     C_R   0.642822 0.713004 0.254803 -0.192026
C49   C     C_R   0.357206 0.712992 0.745195 -0.192030
C50   C     C_R   0.142815 0.213002 0.254803 -0.192026
C51   C     C_R   0.857205 0.212992 0.745195 -0.192033
C52   C     C_3   0.558533 0.569624 0.370197 -0.373312
C53   C     C_3   0.554588 0.520304 0.356600 -0.370236
C54   C     C_3   0.500883 0.508368 0.286385 -0.810194
C55   C     C_3   0.441505 0.569636 0.629830 -0.373359
C56   C     C_3   0.445450 0.520315 0.643426 -0.370154
C57   C     C_3   0.399828 0.325043 0.517929 -0.354899
C58   C     C_3   0.499178 0.508374 0.713615 -0.810126
C59   C     C_3   0.058495 0.069636 0.370171 -0.373363
C60   C     C_3   0.054551 0.020315 0.356577 -0.370129
C61   C     C_3   0.000816 0.008371 0.286396 -0.810091
C62   C     C_3   0.941418 0.069616 0.629768 -0.373223
C63   C     C_3   0.945368 0.020298 0.643384 -0.370343
C64   C     C_3   0.999043 0.008378 0.713642 -0.810304
C65   C     C_3   0.600168 0.325044 0.482061 -0.354893
C66   C     C_3   0.935498 0.861542 0.519311 -0.393284
C67   C     C_3   0.064509 0.861542 0.480706 -0.393282
C68   C     C_3   0.435488 0.361541 0.519287 -0.393285
C69   C     C_R   0.189172 0.809877 0.498591 0.754564
C70   C     C_3   0.564507 0.361542 0.480699 -0.393279
C71   C     C_3   0.811794 0.866243 0.429847 -0.392909
C72   C     C_3   0.188212 0.866252 0.570147 -0.392902
C73   C     C_3   0.311785 0.366255 0.429854 -0.392898
C74   C     C_3   0.688210 0.366250 0.570148 -0.392903
C75   C     C_3   0.861814 0.879550 0.556460 -0.366340
C76   C     C_3   0.138174 0.879544 0.443527 -0.366356
C77   C     C_3   0.361830 0.379542 0.556478 -0.366362
C78   C     C_3   0.638176 0.379545 0.443531 -0.366347
C79   C     C_3   0.845488 0.844271 0.501576 0.157152
C80   C     C_R   0.310828 0.309877 0.501409 0.754568
C81   C     C_3   0.154512 0.844272 0.498424 0.157152
C82   C     C_3   0.345487 0.344272 0.501576 0.157153
C83   C     C_3   0.654512 0.344272 0.498424 0.157148
C84   C     C_3   0.904937 0.905855 0.500362 0.166049
C85   C     C_3   0.095064 0.905856 0.499637 0.166054
C86   C     C_3   0.404936 0.405857 0.500363 0.166058
C87   C     C_3   0.595064 0.405856 0.499637 0.166047
C88   C     C_3   0.847255 0.901481 0.428362 -0.353223
C89   C     C_3   0.152751 0.901489 0.571632 -0.353232
C90   C     C_3   0.347247 0.401493 0.428369 -0.353241
C91   C     C_R   0.689172 0.309877 0.498591 0.754564
C92   C     C_3   0.652748 0.401486 0.571634 -0.353227
C93   C     C_3   0.895091 0.916474 0.554045 -0.398274
C94   C     C_3   0.104899 0.916470 0.445943 -0.398248
C95   C     C_3   0.395106 0.416468 0.554062 -0.398245
C96   C     C_3   0.604903 0.416471 0.445948 -0.398262
C97   C     C_R   0.683839 0.749886 0.367497 0.780236
C98   C     C_R   0.316161 0.749886 0.632502 0.780234
C99   C     C_R   0.183838 0.249886 0.367497 0.780238
C100  C     C_R   0.816161 0.249886 0.632502 0.780219
C101  C     C_R   0.836072 0.766217 0.745660 -0.189853
C102  C     C_R   0.645972 0.749653 0.291476 -0.030311
C103  C     C_R   0.163937 0.766195 0.254341 -0.189856
C104  C     C_R   0.336070 0.266213 0.745659 -0.189856
C105  C     C_R   0.663933 0.266204 0.254341 -0.189851
C106  C     C_R   0.871943 0.766196 0.817667 -0.159725
C107  C     C_R   0.128066 0.766173 0.182334 -0.159716
C108  C     C_R   0.371941 0.266192 0.817667 -0.159723
C109  C     C_R   0.628062 0.266183 0.182334 -0.159719
C110  C     C_R   0.926904 0.751299 0.853866 0.058455
C111  C     C_R   0.073096 0.751300 0.146135 0.058446
C112  C     C_R   0.426904 0.251299 0.853866 0.058454
C113  C     C_R   0.354027 0.749653 0.708522 -0.030285
C114  C     C_R   0.573096 0.251299 0.146134 0.058451
C115  C     C_R   0.945136 0.736060 0.816669 -0.160003
C116  C     C_R   0.054856 0.736083 0.183333 -0.159996
C117  C     C_R   0.445137 0.236064 0.816669 -0.160002
C118  C     C_R   0.554860 0.236073 0.183332 -0.159998
C119  C     C_R   0.908951 0.735304 0.744703 -0.190035
C120  C     C_R   0.091041 0.735327 0.255299 -0.190035
C121  C     C_R   0.408952 0.235309 0.744703 -0.190034
C122  C     C_R   0.591045 0.235317 0.255298 -0.190037
C123  C     C_R   0.854170 0.750550 0.708545 -0.030107
C124  C     C_R   0.145972 0.249653 0.291477 -0.030309
C125  C     C_R   0.145830 0.750551 0.291456 -0.030092
C126  C     C_R   0.354170 0.250551 0.708544 -0.030103
C127  C     C_R   0.645830 0.250550 0.291456 -0.030101
C128  C     C_R   0.035019 0.751531 0.070004 0.404404
C129  C     C_R   0.964981 0.751531 0.929997 0.404404
C130  C     C_R   0.535019 0.251531 0.070004 0.404402
C131  C     C_R   0.464981 0.251531 0.929997 0.404402
C132  C     C_3   0.642468 0.619851 0.445979 -0.386456
C133  C     C_3   0.357591 0.619882 0.554084 -0.386541
C134  C     C_3   0.142407 0.119883 0.445916 -0.386524
C135  C     C_R   0.854027 0.249653 0.708523 -0.030279
C136  C     C_3   0.857439 0.119802 0.553921 -0.386320
C137  C     C_3   0.608920 0.581607 0.446020 -0.051009
C138  C     C_3   0.391106 0.581622 0.554017 -0.051028
C139  C     C_3   0.108893 0.081623 0.445983 -0.051032
C140  C     C_3   0.891044 0.081585 0.553929 -0.050965
C141  C     C_3   0.687258 0.634610 0.570719 -0.406045
C142  C     C_3   0.312713 0.634569 0.429302 -0.406022
C143  C     C_3   0.187286 0.134569 0.570696 -0.406018
C144  C     C_3   0.812788 0.134672 0.429249 -0.406075
C145  C     C_R   0.689665 0.690129 0.499449 0.765360
C146  C     C_R   0.464895 0.749189 0.929993 0.404562
C147  C     C_R   0.310333 0.690129 0.500546 0.765361
C148  C     C_R   0.189667 0.190129 0.499453 0.765364
C149  C     C_R   0.810338 0.190129 0.500558 0.765344
C150  C     C_3   0.599021 0.673852 0.477669 -0.359006
C151  C     C_3   0.400946 0.673859 0.522241 -0.358995
C152  C     C_3   0.099055 0.173858 0.477762 -0.358986
C153  C     C_3   0.901030 0.173839 0.522473 -0.359022
C154  C     C_3   0.655116 0.655490 0.498565 0.137157
C155  C     C_3   0.344882 0.655489 0.501431 0.137161
C156  C     C_3   0.155118 0.155490 0.498569 0.137142
Cu1   Cu    Cu3+1 0.781250 0.718750 0.500000 0.923101
Cu2   Cu    Cu3+1 0.465810 0.500010 0.431550 0.907952
Cu3   Cu    Cu3+1 0.034190 0.000010 0.568450 0.907978
Cu4   Cu    Cu3+1 0.965810 0.000010 0.431550 0.907927
Cu5   Cu    Cu3+1 0.218750 0.718750 0.500000 0.923106
Cu6   Cu    Cu3+1 0.281250 0.218750 0.500000 0.923101
Cu7   Cu    Cu3+1 0.718750 0.218750 0.500000 0.923109
Cu8   Cu    Cu3+1 0.718740 0.781230 0.500010 0.923361
Cu9   Cu    Cu3+1 0.281260 0.781230 0.499990 0.923366
Cu10  Cu    Cu3+1 0.218740 0.281230 0.500010 0.923361
Cu11  Cu    Cu3+1 0.781260 0.281230 0.499990 0.923365
Cu12  Cu    Cu3+1 0.534190 0.500010 0.568450 0.907935
H1    H     H_    0.614239 0.814850 0.281894 0.147352
H2    H     H_    0.175896 0.893753 0.452728 0.176650
H3    H     H_    0.855936 0.108062 0.391743 0.188142
H4    H     H_    0.668032 0.684395 0.281792 0.146437
H5    H     H_    0.332019 0.684373 0.718205 0.146417
H6    H     H_    0.168020 0.184391 0.281792 0.146433
H7    H     H_    0.832018 0.184373 0.718205 0.146416
H8    H     H_    0.889584 0.800474 0.478274 0.174774
H9    H     H_    0.110434 0.800479 0.521757 0.174770
H10   H     H_    0.389560 0.300480 0.478232 0.174769
H11   H     H_    0.610431 0.300479 0.521753 0.174771
H12   H     H_    0.924300 0.808146 0.568733 0.159545
H13   H     H_    0.324110 0.393751 0.547282 0.176649
H14   H     H_    0.075704 0.808138 0.431292 0.159549
H15   H     H_    0.424295 0.308136 0.568699 0.159555
H16   H     H_    0.575705 0.308138 0.431289 0.159547
H17   H     H_    0.976262 0.863363 0.571560 0.167637
H18   H     H_    0.023742 0.863357 0.428459 0.167628
H19   H     H_    0.476257 0.363355 0.571532 0.167626
H20   H     H_    0.523742 0.363360 0.428451 0.167634
H21   H     H_    0.944076 0.853609 0.482287 0.146989
H22   H     H_    0.055938 0.853613 0.517737 0.146994
H23   H     H_    0.444056 0.353614 0.482252 0.146998
H24   H     H_    0.675899 0.393753 0.452732 0.176648
H25   H     H_    0.555930 0.353613 0.517725 0.146989
H26   H     H_    0.798563 0.841359 0.389368 0.153590
H27   H     H_    0.201453 0.841373 0.610636 0.153582
H28   H     H_    0.298541 0.341378 0.389362 0.153581
H29   H     H_    0.701451 0.341369 0.610635 0.153582
H30   H     H_    0.464332 0.517283 0.284052 0.252360
H31   H     H_    0.498420 0.525637 0.244744 0.245700
H32   H     H_    0.499884 0.472634 0.278034 0.232454
H33   H     H_    0.590556 0.509753 0.358589 0.201016
H34   H     H_    0.556388 0.502202 0.396862 0.242205
H35   H     H_    0.887172 0.864523 0.608692 0.151442
H36   H     H_    0.518903 0.582339 0.356818 0.220728
H37   H     H_    0.562423 0.584897 0.332206 0.190196
H38   H     H_    0.535709 0.517282 0.715902 0.252364
H39   H     H_    0.501678 0.525646 0.755280 0.245678
H40   H     H_    0.500176 0.472641 0.721969 0.232435
H41   H     H_    0.409502 0.509769 0.641479 0.200988
H42   H     H_    0.443613 0.502211 0.603138 0.242173
H43   H     H_    0.481128 0.582354 0.643193 0.220738
H44   H     H_    0.437625 0.584907 0.667831 0.190183
H45   H     H_    0.964290 0.017275 0.284124 0.252364
H46   H     H_    0.112810 0.864510 0.391300 0.151439
H47   H     H_    0.998302 0.025643 0.244722 0.245670
H48   H     H_    0.999821 0.972637 0.278043 0.232424
H49   H     H_    0.090494 0.009770 0.358511 0.200982
H50   H     H_    0.056399 0.002211 0.396874 0.242153
H51   H     H_    0.018872 0.082354 0.356808 0.220741
H52   H     H_    0.062375 0.084906 0.332169 0.190177
H53   H     H_    0.035622 0.017302 0.716041 0.252346
H54   H     H_    0.001448 0.025648 0.755241 0.245733
H55   H     H_    0.000048 0.972645 0.722000 0.232486
H56   H     H_    0.909374 0.009742 0.641334 0.201058
H57   H     H_    0.387196 0.364506 0.608704 0.151441
H58   H     H_    0.943625 0.002193 0.603164 0.242250
H59   H     H_    0.981055 0.082326 0.643164 0.220712
H60   H     H_    0.937515 0.084897 0.667742 0.190205
H61   H     H_    0.612812 0.364512 0.391303 0.151441
H62   H     H_    0.935408 0.920478 0.606256 0.180966
H63   H     H_    0.064578 0.920470 0.393735 0.180962
H64   H     H_    0.435428 0.420467 0.606269 0.180963
H65   H     H_    0.385707 0.814872 0.718104 0.147332
H66   H     H_    0.564584 0.420475 0.393740 0.180964
H67   H     H_    0.871718 0.947684 0.540064 0.135241
H68   H     H_    0.128269 0.947680 0.459912 0.135226
H69   H     H_    0.371737 0.447679 0.540098 0.135229
H70   H     H_    0.628276 0.447680 0.459924 0.135238
H71   H     H_    0.773448 0.881467 0.417666 0.169385
H72   H     H_    0.226551 0.881478 0.582313 0.169390
H73   H     H_    0.273448 0.381482 0.417693 0.169395
H74   H     H_    0.726549 0.381477 0.582315 0.169391
H75   H     H_    0.824905 0.933290 0.412727 0.154495
H76   H     H_    0.114252 0.314854 0.281895 0.147347
H77   H     H_    0.175095 0.933301 0.587256 0.154479
H78   H     H_    0.324904 0.433305 0.412751 0.154476
H79   H     H_    0.675094 0.433297 0.587263 0.154484
H80   H     H_    0.793970 0.778010 0.719035 0.147064
H81   H     H_    0.206046 0.777970 0.280966 0.147049
H82   H     H_    0.293967 0.278003 0.719034 0.147062
H83   H     H_    0.706039 0.277987 0.280966 0.147055
H84   H     H_    0.856828 0.778291 0.844991 0.147870
H85   H     H_    0.143188 0.778251 0.155009 0.147869
H86   H     H_    0.356825 0.278284 0.844991 0.147869
H87   H     H_    0.885709 0.314872 0.718105 0.147333
H88   H     H_    0.643181 0.278268 0.155009 0.147869
H89   H     H_    0.987197 0.724206 0.843200 0.148087
H90   H     H_    0.012788 0.724247 0.156803 0.148086
H91   H     H_    0.487200 0.224214 0.843199 0.148085
H92   H     H_    0.512795 0.224230 0.156802 0.148086
H93   H     H_    0.551584 0.814689 0.156061 0.148241
H94   H     H_    0.448363 0.814711 0.843938 0.148243
H95   H     H_    0.051597 0.314693 0.156061 0.148242
H96   H     H_    0.948365 0.314711 0.843938 0.148244
H97   H     H_    0.924046 0.723238 0.717336 0.147198
H98   H     H_    0.852725 0.892468 0.388837 0.176184
H99   H     H_    0.075940 0.723279 0.282668 0.147181
H100  H     H_    0.424049 0.223246 0.717335 0.147195
H101  H     H_    0.575946 0.223261 0.282666 0.147188
H102  H     H_    0.681702 0.606397 0.458430 0.165026
H103  H     H_    0.318384 0.606437 0.541725 0.165017
H104  H     H_    0.181612 0.106439 0.458269 0.165009
H105  H     H_    0.818161 0.106329 0.541318 0.165039
H106  H     H_    0.620255 0.635833 0.394712 0.141823
H107  H     H_    0.379853 0.635889 0.605339 0.141843
H108  H     H_    0.120145 0.135891 0.394662 0.141841
H109  H     H_    0.147288 0.892480 0.611166 0.176193
H110  H     H_    0.879565 0.135743 0.605205 0.141777
H111  H     H_    0.637455 0.552917 0.468503 0.121545
H112  H     H_    0.362558 0.552939 0.531552 0.121597
H113  H     H_    0.137442 0.052941 0.468448 0.121598
H114  H     H_    0.862536 0.052879 0.531425 0.121450
H115  H     H_    0.726910 0.620135 0.585879 0.172512
H116  H     H_    0.273092 0.620074 0.414217 0.172557
H117  H     H_    0.226905 0.120073 0.585777 0.172561
H118  H     H_    0.773082 0.120235 0.413967 0.172440
H119  H     H_    0.675106 0.567523 0.588513 0.155370
H120  H     H_    0.352705 0.392485 0.388831 0.176196
H121  H     H_    0.324892 0.567487 0.411525 0.155336
H122  H     H_    0.175108 0.067487 0.588474 0.155337
H123  H     H_    0.824892 0.067575 0.411440 0.155418
H124  H     H_    0.606767 0.699439 0.514880 0.176024
H125  H     H_    0.393156 0.699412 0.484964 0.176004
H126  H     H_    0.106845 0.199411 0.515039 0.176002
H127  H     H_    0.893356 0.199483 0.485372 0.176050
H128  H     H_    0.575421 0.689325 0.425849 0.161425
H129  H     H_    0.424558 0.689377 0.574029 0.161452
H130  H     H_    0.075445 0.189378 0.425975 0.161450
H131  H     H_    0.647282 0.392473 0.611163 0.176190
H132  H     H_    0.924616 0.189238 0.574346 0.161388
H133  H     H_    0.523032 0.635171 0.424417 0.159676
H134  H     H_    0.476947 0.635190 0.575538 0.159684
H135  H     H_    0.023054 0.135190 0.424463 0.159683
H136  H     H_    0.977002 0.135144 0.575637 0.159652
H137  H     H_    0.604649 0.683909 0.155815 0.147683
H138  H     H_    0.395404 0.683887 0.844182 0.147685
H139  H     H_    0.104636 0.183905 0.155815 0.147684
H140  H     H_    0.895402 0.183887 0.844182 0.147686
H141  H     H_    0.554709 0.645348 0.512930 0.150512
H142  H     H_    0.824086 0.893760 0.547244 0.176654
H143  H     H_    0.445270 0.645329 0.487014 0.150505
H144  H     H_    0.054730 0.145329 0.512986 0.150500
H145  H     H_    0.945307 0.145379 0.487136 0.150530
H146  H     H_    0.698075 0.659972 0.609675 0.160140
H147  H     H_    0.301835 0.659911 0.390296 0.160102
H148  H     H_    0.198164 0.159911 0.609702 0.160107
H149  H     H_    0.802071 0.160065 0.390375 0.160198
H150  H     H_    0.644123 0.608034 0.608266 0.188188
H151  H     H_    0.355832 0.608008 0.391725 0.188218
H152  H     H_    0.144169 0.108009 0.608275 0.188219
N1    N     N_R   0.517307 0.711042 0.034316 -0.243240
N2    N     N_R   0.979071 0.751474 0.035006 -0.242696
N3    N     N_R   0.520929 0.251459 0.964995 -0.242695
N4    N     N_R   0.479071 0.251467 0.035005 -0.242695
N5    N     N_R   0.055259 0.751631 0.033620 -0.242429
N6    N     N_R   0.944741 0.751654 0.966381 -0.242429
N7    N     N_R   0.555259 0.251638 0.033620 -0.242429
N8    N     N_R   0.444741 0.251647 0.966381 -0.242428
N9    N     N_R   0.482716 0.711042 0.965682 -0.243243
N10   N     N_R   0.017305 0.211042 0.034316 -0.243241
N11   N     N_R   0.982714 0.211042 0.965682 -0.243242
N12   N     N_R   0.482874 0.787318 0.965694 -0.242602
N13   N     N_R   0.517104 0.787318 0.034306 -0.242599
N14   N     N_R   0.982876 0.287318 0.965694 -0.242602
N15   N     N_R   0.017106 0.287318 0.034306 -0.242601
N16   N     N_R   0.020929 0.751452 0.964996 -0.242695
O1    O     O_R   0.821970 0.769190 0.500010 -0.592159
O2    O     O_R   0.516760 0.545590 0.442260 -0.586492
O3    O     O_R   0.983240 0.045590 0.557740 -0.586516
O4    O     O_R   0.016760 0.045590 0.442260 -0.586481
O5    O     O_R   0.425480 0.545560 0.442150 -0.591422
O6    O     O_R   0.574520 0.545560 0.557850 -0.591429
O7    O     O_R   0.925480 0.045560 0.442150 -0.591440
O8    O     O_R   0.074520 0.045560 0.557850 -0.591423
O9    O     O_R   0.769180 0.821950 0.500020 -0.591639
O10   O     O_R   0.230820 0.821950 0.499980 -0.591640
O11   O     O_R   0.269180 0.321950 0.500020 -0.591639
O12   O     O_R   0.178030 0.769190 0.499990 -0.592160
O13   O     O_R   0.730820 0.321950 0.499980 -0.591641
O14   O     O_R   0.726460 0.723610 0.400140 -0.585362
O15   O     O_R   0.273540 0.723610 0.599860 -0.585354
O16   O     O_R   0.226460 0.223610 0.400140 -0.585359
O17   O     O_R   0.773540 0.223610 0.599860 -0.585356
O18   O     O_R   0.673680 0.776380 0.400160 -0.585564
O19   O     O_R   0.326320 0.776380 0.599840 -0.585557
O20   O     O_R   0.173680 0.276380 0.400160 -0.585563
O21   O     O_R   0.826320 0.276380 0.599840 -0.585558
O22   O     O_R   0.730800 0.678030 0.499990 -0.593048
O23   O     O_R   0.321970 0.269190 0.500010 -0.592159
O24   O     O_R   0.269200 0.678030 0.500010 -0.593049
O25   O     O_R   0.230800 0.178030 0.499990 -0.593048
O26   O     O_R   0.769200 0.178030 0.500010 -0.593049
O27   O     O_R   0.678020 0.730800 0.500000 -0.592548
O28   O     O_R   0.321980 0.730800 0.500000 -0.592550
O29   O     O_R   0.178020 0.230800 0.500000 -0.592549
O30   O     O_R   0.821980 0.230800 0.500000 -0.592547
O31   O     O_R   0.826310 0.723610 0.599860 -0.585848
O32   O     O_R   0.173690 0.723610 0.400140 -0.585843
O33   O     O_R   0.326310 0.223610 0.599860 -0.585847
O34   O     O_R   0.678030 0.269190 0.499990 -0.592159
O35   O     O_R   0.673690 0.223610 0.400140 -0.585844
O36   O     O_R   0.773530 0.776370 0.599870 -0.585997
O37   O     O_R   0.226470 0.776370 0.400130 -0.585993
O38   O     O_R   0.273530 0.276370 0.599870 -0.585997
O39   O     O_R   0.726470 0.276370 0.400130 -0.585992
O40   O     O_R   0.074500 0.954430 0.557860 -0.590037
O41   O     O_R   0.925500 0.954430 0.442140 -0.590033
O42   O     O_R   0.574500 0.454430 0.557860 -0.590035
O43   O     O_R   0.425500 0.454430 0.442140 -0.590038
O44   O     O_R   0.016750 0.954400 0.442270 -0.595327
O45   O     O_R   0.983250 0.954400 0.557730 -0.595346
O46   O     O_R   0.516750 0.454400 0.442270 -0.595336
O47   O     O_R   0.483250 0.454400 0.557730 -0.595332
O48   O     O_R   0.483240 0.545590 0.557740 -0.586481

loop_
_geom_bond_atom_site_label_1
_geom_bond_atom_site_label_2
_ccdc_geom_bond_type
C49   C113  A    
C11   H3    S    
C74   C83   S    
C136  C140  S    
C49   H5    S    
C131  N8    A    
C153  H127  S    
C21   O48   A    
C17   C85   S    
Cu1   O22   S    
C19   C87   S    
C132  H102  S    
C57   H10   S    
C117  H91   S    
C141  C154  S    
C133  H103  S    
C6    C25   S    
C118  H92   S    
C62   H59   S    
C119  H97   S    
C66   H21   S    
C11   C144  S    
Cu9   O37   S    
C106  H84   S    
C13   N14   A    
C142  H116  S    
C75   H142  S    
C152  C156  S    
C68   H19   S    
C78   C96   S    
C14   C151  S    
C77   H13   S    
C61   H48   S    
C151  C155  S    
C4    C12   S    
C147  C155  S    
C19   O46   A    
C100  C135  S    
C59   C60   S    
C2    N13   A    
C151  H125  S    
C142  H147  S    
C114  C130  S    
Cu9   O10   S    
C13   C42   S    
Cu6   O16   S    
C130  N4    A    
C16   H145  S    
C145  O27   A    
Cu1   O14   S    
C3    C149  S    
C104  H82   S    
N10   N11   A    
C139  H113  S    
C18   O41   A    
Cu12  O48   S    
C12   C150  S    
C33   H87   S    
C95   H64   S    
C86   C90   S    
Cu12  O6    S    
C105  C127  A    
C120  C125  A    
C71   H26   S    
C35   C66   S    
C132  C137  S    
C53   H33   S    
C52   H37   S    
C64   H55   S    
C30   H1    S    
C33   C135  A    
C149  O26   A    
C30   C102  A    
C52   C137  S    
C14   H134  S    
C97   O14   A    
C76   H2    S    
C23   O3    A    
C90   H120  S    
C1    C79   S    
C26   C123  S    
C45   H139  S    
C75   C93   S    
Cu5   O12   S    
C138  H112  S    
C99   O16   A    
C84   C88   S    
C140  H114  S    
C25   O4    A    
C87   C96   S    
C119  C123  A    
C83   C91   S    
C147  O24   A    
C33   C38   A    
C56   H41   S    
Cu2   O5    S    
C112  C117  A    
C45   C50   A    
C70   H25   S    
C89   H77   S    
N3    N7    A    
C84   C93   S    
C112  C131  S    
C21   O5    A    
C86   C95   S    
C71   C88   S    
Cu8   O36   S    
C5    C21   S    
C73   H28   S    
C41   C45   A    
C31   C36   A    
C43   H137  S    
C103  C107  A    
C101  H80   S    
C75   C79   S    
Cu4   O41   S    
Cu5   Cu9   S    
C134  H108  S    
C91   O13   A    
C150  H124  S    
C152  H126  S    
C136  H105  S    
C151  H129  S    
C88   H75   S    
C71   C79   S    
N1    N9    A    
C10   H122  S    
C53   C54   S    
C78   H61   S    
C77   C82   S    
C27   O32   A    
Cu3   O40   S    
C74   C92   S    
C65   C70   S    
Cu2   O43   S    
C110  C129  S    
C3    C136  S    
C95   H69   S    
C122  C127  A    
Cu8   O18   S    
C122  H101  S    
C4    C137  S    
C132  C154  S    
C8    C141  S    
C15   H135  S    
Cu5   O24   S    
C143  H148  S    
C70   H20   S    
C76   C94   S    
C98   O15   A    
C80   O11   A    
C32   H76   S    
C46   H9    S    
C24   N10   A    
C61   H45   S    
C70   C87   S    
C22   O6    A    
C26   O36   A    
C30   C34   A    
C92   H131  S    
C144  H118  S    
C34   C39   A    
C103  H81   S    
C50   C124  A    
N12   N13   A    
C80   C82   S    
C115  H89   S    
C134  C139  S    
C75   H35   S    
N14   N15   A    
C68   H23   S    
C54   H31   S    
C116  C120  A    
C74   H74   S    
C136  H110  S    
C19   O42   A    
C5    C9    S    
C60   H50   S    
C4    C22   S    
C18   C84   S    
C58   H40   S    
C2    N1    A    
C89   H109  S    
C64   H54   S    
C32   C37   A    
Cu1   Cu8   S    
C109  C114  A    
C145  C154  S    
C115  C119  A    
C29   C127  S    
C18   O45   A    
C57   C68   S    
C52   C53   S    
C101  C106  A    
C105  C109  A    
C137  H111  S    
C34   H93   S    
C108  H86   S    
C128  N5    A    
C107  C111  A    
Cu10  O11   S    
C97   C102  S    
C94   H68   S    
C9    C142  S    
C91   O34   A    
Cu1   O1    S    
C69   O12   A    
C109  H88   S    
C40   C146  S    
C46   H14   S    
C23   O7    A    
N2    N6    A    
C7    C23   S    
C35   C79   S    
C56   C58   S    
C146  N9    A    
C27   O37   A    
C37   C41   A    
C103  C125  A    
C144  H149  S    
Cu3   O45   S    
C63   C64   S    
C76   H46   S    
C7    C140  S    
C40   C44   A    
C148  O25   A    
C111  C128  S    
C120  H99   S    
C57   C82   S    
N5    N16   A    
C61   H47   S    
C62   C140  S    
C31   C113  A    
C25   O8    A    
C99   C124  S    
Cu6   O23   S    
C93   H62   S    
C55   C56   S    
C77   H57   S    
C133  H107  S    
C99   O20   A    
C67   H22   S    
Cu2   Cu12  S    
C31   H65   S    
Cu11  O39   S    
C59   H52   S    
C100  O17   A    
C58   H38   S    
Cu10  O38   S    
Cu12  O42   S    
C107  H85   S    
C44   H138  S    
C17   O44   A    
C55   H44   S    
Cu6   Cu10  S    
C78   C83   S    
C134  C156  S    
C129  N6    A    
C12   H133  S    
C20   C86   S    
Cu2   O46   S    
C111  C116  A    
C152  H130  S    
C72   C81   S    
C15   H144  S    
C11   H123  S    
C133  C138  S    
C28   O38   A    
C87   C92   S    
Cu6   O33   S    
C24   C41   S    
C15   C152  S    
C28   C126  S    
C67   C85   S    
C78   H24   S    
Cu7   O34   S    
C121  C126  A    
C85   C89   S    
Cu11  O13   S    
C98   C113  S    
C47   C51   A    
C65   H11   S    
C26   O31   A    
C108  C112  A    
C8    H150  S    
C60   C61   S    
C52   H36   S    
C36   H94   S    
C56   H42   S    
C62   C63   S    
Cu3   Cu4   S    
C59   C139  S    
N4    N8    A    
C48   C102  A    
Cu8   O27   S    
C51   H7    S    
C29   O39   A    
C5    C14   S    
C22   O2    A    
C7    C16   S    
C143  H117  S    
Cu4   O4    S    
C73   C82   S    
C104  C108  A    
C116  H90   S    
C20   O43   A    
C141  H146  S    
C17   O40   A    
Cu12  O47   S    
C3    C144  S    
C6    C10   S    
C53   H34   S    
Cu5   O32   S    
C27   C125  S    
C90   H78   S    
C69   C81   S    
C80   O23   A    
Cu9   O19   S    
C73   H73   S    
C73   C90   S    
C66   H17   S    
C96   H66   S    
C146  N12   A    
Cu3   O8    S    
C148  C156  S    
Cu6   O25   S    
C134  H104  S    
C110  C115  A    
C131  N3    A    
C69   O10   A    
C71   H71   S    
C44   C49   A    
C68   C86   S    
C32   C124  A    
C24   N15   A    
C4    C8    S    
C96   H70   S    
C72   H27   S    
C5    C138  S    
Cu7   O26   S    
C93   H67   S    
C7    C11   S    
C101  C123  A    
C55   C138  S    
C35   H8    S    
Cu1   O31   S    
C38   C42   A    
C118  C122  A    
C62   H60   S    
C65   C83   S    
C148  O29   A    
C3    C153  S    
C54   H32   S    
C129  N16   A    
C117  C121  A    
C141  H115  S    
C6    C15   S    
Cu7   O17   S    
C8    H119  S    
C51   C135  A    
C2    C39   S    
C10   H152  S    
Cu8   O9    S    
C1    O9    A    
C72   H72   S    
C47   H140  S    
C142  C155  S    
C43   C48   A    
Cu4   O44   S    
C67   H18   S    
C10   C143  S    
C149  O30   A    
C48   H4    S    
C16   H136  S    
C121  H100  S    
C100  O21   A    
C92   H79   S    
C94   H63   S    
C63   H58   S    
C28   O33   A    
C36   C40   A    
C145  O22   A    
Cu3   O3    S    
C105  H83   S    
C98   O19   A    
C39   C43   A    
C55   H43   S    
C77   C95   S    
Cu11  O30   S    
Cu7   Cu11  S    
C37   H95   S    
Cu7   O35   S    
C38   H96   S    
C46   C81   S    
C85   C94   S    
C74   H29   S    
C132  H106  S    
C147  O28   A    
C97   O18   A    
C114  C118  A    
C9    H151  S    
Cu5   O15   S    
C153  H132  S    
Cu11  O21   S    
C1    O1    A    
C57   H15   S    
Cu9   O28   S    
Cu10  O20   S    
C106  C110  A    
C35   H12   S    
C133  C155  S    
Cu4   O7    S    
C63   H56   S    
C13   N11   A    
C76   C81   S    
Cu2   O2    S    
C12   H141  S    
C54   H30   S    
C50   H6    S    
C150  H128  S    
C14   H143  S    
C29   O35   A    
C46   C67   S    
C59   H51   S    
C60   H49   S    
Cu10  O29   S    
C9    H121  S    
C72   C89   S    
C88   H98   S    
C143  C156  S    
C58   H39   S    
C128  N2    A    
C64   H53   S    
C42   C47   A    
C6    C139  S    
C66   C84   S    
C130  N7    A    
C104  C126  A    
C20   O47   A    
C150  C154  S    
C16   C153  S    
C65   H16   S    
