data_mof_unit_pretest_153.cif
_audit_creation_date              2012-10-26T19:15:24-0400
_audit_creation_method            fapswitch 2.2
_symmetry_space_group_name_H-M    P1
_symmetry_Int_Tables_number       1
_space_group_crystal_system       triclinic
_cell_length_a                    15.96403
_cell_length_b                    10.930007
_cell_length_c                    9.655064
_cell_angle_alpha                 91.060833
_cell_angle_beta                  89.320816
_cell_angle_gamma                 90.950625
_cell_volume                      1684.04983506

loop_
_atom_site_label
_atom_site_type_symbol
_atom_type_description
_atom_site_fract_x
_atom_site_fract_y
_atom_site_fract_z
_atom_type_partial_charge
C1    C     C_R   0.496753 0.263046 0.498110 0.561080
C2    C     C_R   0.516114 0.935471 0.379360 -0.159930
C3    C     C_R   0.494167 0.872461 0.500224 -0.031269
C4    C     C_R   0.341570 0.499480 0.500581 0.535931
C5    C     C_R   0.458310 0.940783 0.609184 0.046429
C6    C     C_3   0.476515 0.947039 0.761129 0.414265
C7    C     C_3   0.469507 0.087478 0.753928 -0.192973
C8    C     C_R   0.571612 0.524624 0.071522 0.138438
C9    C     C_R   0.432922 0.458194 0.075953 -0.037795
C10   C     C_R   0.431764 0.459403 0.928071 0.211756
C11   C     C_R   0.572463 0.520688 0.924547 0.116321
C12   C     C_R   0.043159 0.481702 0.625467 -0.116339
C13   C     C_3   0.628042 0.630214 0.911197 0.175056
C14   C     C_3   0.622852 0.641631 0.069831 0.393469
C15   C     C_R   0.499518 0.738017 0.501084 0.545507
C16   C     C_R   0.658451 0.499691 0.499474 0.544224
C17   C     C_R   0.954791 0.483242 0.627150 0.263004
C18   C     C_R   0.912633 0.489624 0.500236 0.070906
C19   C     C_R   0.957657 0.496745 0.374165 0.104532
C20   C     C_R   0.045291 0.500211 0.375748 -0.118816
C21   C     C_R   0.087612 0.492460 0.500813 -0.031333
C22   C     C_3   0.285670 0.488454 0.880952 -0.300198
C23   C     C_1   0.822738 0.493492 0.499845 0.016287
C24   C     C_3   0.749229 0.700585 0.806076 -0.104645
C25   C     C_3   0.737009 0.726730 0.219732 -0.244013
C26   C     C_3   0.495948 0.758388 0.079326 -0.121217
C27   C     C_3   0.942454 0.536990 0.860597 -0.139810
C28   C     C_3   0.885100 0.385194 0.193078 -0.308107
C29   C     C_3   0.457680 0.130620 0.168473 -0.114162
C30   C     C_3   0.329324 0.932905 0.859018 -0.361989
C31   C     C_3   0.600673 0.965892 0.891846 -0.128816
C32   C     C_1   0.177207 0.495032 0.501337 -0.071081
C33   C     C_1   0.252360 0.497316 0.501553 -0.039102
C34   C     C_1   0.747638 0.496731 0.498901 -0.007418
C35   C     C_R   0.454757 0.067110 0.604094 -0.098456
C36   C     C_R   0.486590 0.130475 0.491044 0.004844
C37   C     C_R   0.508007 0.062238 0.370445 0.240293
Cu1   Cu    Cu3+1 0.500000 0.499980 0.640670 0.983488
Cu2   Cu    Cu3+1 0.500000 0.500020 0.359330 0.959839
H1    H     H_    0.077622 0.472028 0.720431 0.099801
H2    H     H_    0.234251 0.452125 0.814766 0.139816
H3    H     H_    0.299695 0.584495 0.851228 0.156058
H4    H     H_    0.762110 0.769351 0.889720 0.108711
H5    H     H_    0.713084 0.741796 0.721278 0.127642
H6    H     H_    0.810011 0.672937 0.760210 0.161605
H7    H     H_    0.719126 0.540969 0.166316 0.256708
H8    H     H_    0.802552 0.707579 0.248488 0.132932
H9    H     H_    0.698552 0.736021 0.315893 0.168836
H10   H     H_    0.736866 0.813816 0.162230 0.156318
H11   H     H_    0.481688 0.716219 0.978089 0.111979
H12   H     H_    0.528246 0.140701 0.771408 0.139552
H13   H     H_    0.480591 0.855948 0.075226 0.153968
H14   H     H_    0.452304 0.718966 0.156505 0.166797
H15   H     H_    0.891858 0.556167 0.937102 0.170721
H16   H     H_    0.969302 0.627310 0.829505 0.088675
H17   H     H_    0.990136 0.481655 0.912663 0.110094
H18   H     H_    0.947355 0.551539 0.171688 0.233240
H19   H     H_    0.847324 0.398645 0.099000 0.165395
H20   H     H_    0.844535 0.338707 0.270852 0.162221
H21   H     H_    0.938914 0.325894 0.165561 0.140203
H22   H     H_    0.474876 0.177305 0.070881 0.126826
H23   H     H_    0.378553 0.424739 0.132214 0.121527
H24   H     H_    0.409893 0.187366 0.223000 0.124964
H25   H     H_    0.429310 0.040178 0.140891 0.091253
H26   H     H_    0.407480 0.790149 0.808737 0.263457
H27   H     H_    0.286067 0.863044 0.903781 0.129489
H28   H     H_    0.303480 0.962097 0.758781 0.147289
H29   H     H_    0.332202 0.010842 0.934099 0.132476
H30   H     H_    0.558269 0.005346 0.972114 0.150762
H31   H     H_    0.640988 0.039183 0.847107 0.120107
H32   H     H_    0.643067 0.902592 0.943602 0.158344
H33   H     H_    0.596633 0.701194 0.851446 0.167894
H34   H     H_    0.080336 0.507248 0.279258 0.107998
H35   H     H_    0.544065 0.888314 0.293566 0.202988
H36   H     H_    0.414614 0.129682 0.805459 0.096844
H37   H     H_    0.346501 0.323124 0.882759 0.210871
H38   H     H_    0.263968 0.486859 0.990667 0.098986
N1    N     N_R   0.500520 0.500930 0.147930 -0.264624
N2    N     N_R   0.500520 0.500890 0.852020 -0.256035
N3    N     N_2   0.359050 0.413591 0.860750 -0.453147
N4    N     N_2   0.704541 0.627374 0.133836 -0.452248
N5    N     N_2   0.915004 0.502549 0.245902 -0.536996
N6    N     N_2   0.411674 0.880974 0.839076 -0.521617
O1    O     O_R   0.500000 0.319640 0.618810 -0.504417
O2    O     O_3   0.580836 0.748324 0.119858 -0.597625
O3    O     O_3   0.907360 0.470327 0.748173 -0.550206
O4    O     O_3   0.530645 0.118274 0.248130 -0.547534
O5    O     O_3   0.558047 0.901823 0.784532 -0.579936
O6    O     O_R   0.500010 0.319680 0.381230 -0.460254
O7    O     O_R   0.380300 0.499950 0.618760 -0.463508
O8    O     O_R   0.380310 0.499990 0.381180 -0.527367
O9    O     O_R   0.499990 0.680320 0.618770 -0.497093
O10   O     O_R   0.500000 0.680360 0.381190 -0.495117
O11   O     O_R   0.619690 0.500010 0.618820 -0.456937
O12   O     O_R   0.619700 0.500050 0.381240 -0.497858
O13   O     O_3   0.707774 0.596317 0.859381 -0.539028

loop_
_geom_bond_atom_site_label_1
_geom_bond_atom_site_label_2
_ccdc_geom_bond_type
C8    N1    A    
C29   H24   S    
C35   C36   A    
C27   H15   S    
C22   H3    S    
C1    O1    A    
C24   H6    S    
C36   C37   A    
C24   O13   S    
Cu1   Cu2   S    
C27   H16   S    
H26   N6    S    
C22   H2    S    
Cu1   N2    S    
Cu1   O9    S    
C6    O5    S    
C18   C19   A    
C30   N6    S    
Cu2   O10   S    
C16   C34   S    
C15   O9    A    
C31   H31   S    
C19   C20   A    
C12   C17   A    
C8    C14   S    
C31   O5    S    
C19   N5    S    
C9    C10   A    
C25   H8    S    
C30   H28   S    
C2    H35   S    
C4    O8    A    
C31   H32   S    
C29   H25   S    
C13   C14   S    
C25   N4    S    
Cu2   O8    S    
C4    O7    A    
C28   H21   S    
C21   C32   S    
C29   H22   S    
C13   O13   S    
C28   N5    S    
C18   C23   S    
Cu2   N1    S    
C22   H38   S    
C10   N3    S    
C27   H17   S    
C7    H36   S    
C12   C21   A    
C17   O3    S    
C12   H1    S    
C27   O3    S    
C26   H13   S    
H7    N4    S    
C8    C11   A    
C23   C34   T    
Cu1   O11   S    
C17   C18   A    
C25   H9    S    
Cu2   O12   S    
C30   H27   S    
C11   N2    A    
C24   H5    S    
C26   H14   S    
C3    C15   S    
C28   H20   S    
C4    C33   S    
C16   O12   A    
C1    O6    A    
C6    N6    S    
Cu1   O1    S    
C7    C35   S    
C37   O4    S    
H37   N3    S    
C14   O2    S    
C3    C5    A    
C15   O10   A    
C10   N2    A    
C6    C7    S    
C13   H33   S    
C28   H19   S    
Cu1   O7    S    
C16   O11   A    
C9    H23   S    
C32   C33   T    
C26   H11   S    
C2    C3    A    
C22   N3    S    
C11   C13   S    
C2    C37   A    
C5    C6    S    
C26   O2    S    
C5    C35   A    
C20   H34   S    
C9    N1    A    
C25   H10   S    
C29   O4    S    
C7    H12   S    
C31   H30   S    
C20   C21   A    
C24   H4    S    
H18   N5    S    
C14   N4    S    
Cu2   O6    S    
C30   H29   S    
C1    C36   S    
