data_mof_unit_pretest_594.cif
_audit_creation_date              2012-12-10T17:59:46-0500
_audit_creation_method            fapswitch 2.2
_symmetry_space_group_name_H-M    P1
_symmetry_Int_Tables_number       1
_space_group_crystal_system       triclinic
_cell_length_a                    10.834869
_cell_length_b                    9.513937
_cell_length_c                    15.900272
_cell_angle_alpha                 90.061433
_cell_angle_beta                  90.148308
_cell_angle_gamma                 89.996041
_cell_volume                      1639.02955275

loop_
_atom_site_label
_atom_site_type_symbol
_atom_type_description
_atom_site_fract_x
_atom_site_fract_y
_atom_site_fract_z
_atom_type_partial_charge
C1    C     C_R   0.262051 0.500003 0.500021 0.784106
C2    C     C_3   0.641627 0.473329 0.952832 -0.009439
C3    C     C_3   0.635489 0.466254 0.051086 -0.442109
C4    C     C_1   0.505242 0.504939 0.824625 -0.022267
C5    C     C_1   0.502182 0.500726 0.175174 -0.060330
C6    C     C_1   0.500917 0.499944 0.250623 -0.188420
C7    C     C_R   0.063861 0.372271 0.500234 -0.185046
C8    C     C_R   0.063844 0.627734 0.500235 -0.185287
C9    C     C_R   0.936170 0.372268 0.500330 -0.182395
C10   C     C_R   0.936153 0.627732 0.500333 -0.182756
C11   C     C_R   0.871798 0.499998 0.500298 -0.017001
C12   C     C_R   0.128213 0.500004 0.500151 -0.018293
C13   C     C_R   0.423449 0.074343 0.447609 -0.023965
C14   C     C_R   0.423455 0.925486 0.447605 -0.022933
C15   C     C_R   0.499985 0.499937 0.340180 0.828024
C16   C     C_R   0.576442 0.925647 0.552562 -0.023373
C17   C     C_R   0.576472 0.074512 0.552539 -0.017307
C18   C     C_R   0.737957 0.499998 0.500147 0.786823
C19   C     C_R   0.500272 0.500138 0.659793 0.830515
C20   C     C_3   0.467921 0.650685 0.050819 -0.444709
C21   C     C_3   0.412146 0.393616 0.047879 -0.444579
C22   C     C_3   0.410396 0.399037 0.950229 0.052448
C23   C     C_3   0.464438 0.655894 0.952484 0.043750
C24   C     C_1   0.502520 0.501217 0.749232 -0.176065
C25   C     C_3   0.504249 0.502781 0.083072 0.232593
C26   C     C_3   0.508371 0.508296 0.917061 0.166238
Cu1   Cu    Cu3+1 0.500020 0.640660 0.500000 0.942019
Cu2   Cu    Cu3+1 0.500020 0.359340 0.500000 0.948512
H1    H     H_    0.366257 0.672884 0.933948 0.121589
H2    H     H_    0.317810 0.439484 0.930973 0.139268
H3    H     H_    0.637655 0.869578 0.594632 0.122095
H4    H     H_    0.637753 0.130709 0.594563 0.126711
H5    H     H_    0.375558 0.680235 0.075790 0.152967
H6    H     H_    0.317811 0.415963 0.072097 0.158990
H7    H     H_    0.437533 0.287022 0.070975 0.178286
H8    H     H_    0.534922 0.728099 0.076910 0.179208
H9    H     H_    0.703260 0.539572 0.080595 0.167806
H10   H     H_    0.660873 0.359570 0.074382 0.165163
H11   H     H_    0.111893 0.272405 0.500193 0.149440
H12   H     H_    0.111864 0.727601 0.500195 0.149273
H13   H     H_    0.888155 0.272399 0.500378 0.149639
H14   H     H_    0.888125 0.727600 0.500385 0.149651
H15   H     H_    0.362061 0.130407 0.405664 0.117770
H16   H     H_    0.362070 0.869285 0.405657 0.117899
N1    N     N_R   0.500030 0.852070 0.500020 -0.157136
N2    N     N_R   0.500030 0.147930 0.500020 -0.158275
O1    O     O_R   0.319660 0.618740 0.500000 -0.589535
O2    O     O_R   0.319660 0.381260 0.500000 -0.589397
O3    O     O_R   0.500020 0.618840 0.379440 -0.576692
O4    O     O_R   0.500020 0.381160 0.379440 -0.577376
O5    O     O_R   0.680370 0.618830 0.500010 -0.589271
O6    O     O_R   0.680370 0.381170 0.500010 -0.589658
O7    O     O_R   0.500010 0.618730 0.620560 -0.583047
O8    O     O_R   0.500010 0.381270 0.620560 -0.567099
N3    N     N_2   0.426245 0.258961 0.913993 -0.402234
H17   H     H_    0.492860 0.197793 0.942310 0.271896
C27   C     C_3   0.313865 0.180999 0.898148 -0.697713
H18   H     H_    0.336645 0.078620 0.868424 0.231008
H19   H     H_    0.253010 0.240184 0.854396 0.238970
H20   H     H_    0.264514 0.161069 0.958137 0.223988
N4    N     N_2   0.535764 0.776784 0.922297 -0.399656
H21   H     H_    0.534553 0.861569 0.962856 0.258733
C28   C     C_3   0.516075 0.823005 0.836374 -0.653153
H22   H     H_    0.539500 0.936342 0.830501 0.225373
H23   H     H_    0.418366 0.808826 0.816731 0.211610
H24   H     H_    0.578711 0.765662 0.793399 0.248733
C29   C     C_1   0.732905 0.580670 0.927438 0.280556
N5    N     N_1   0.804735 0.664304 0.907587 -0.281677
C30   C     C_1   0.690703 0.339689 0.919160 0.196722
N6    N     N_1   0.729824 0.235441 0.892678 -0.290178

loop_
_geom_bond_atom_site_label_1
_geom_bond_atom_site_label_2
_ccdc_geom_bond_type
C16   N1    A    
C4    C26   S    
N3    H17   S    
C28   H23   S    
C1    O2    A    
C3    H10   S    
C22   N3    S    
C21   H7    S    
C10   H14   S    
C2    C30   S    
Cu2   O6    S    
C9    H13   S    
C20   C23   S    
C13   H15   S    
C8    C12   A    
Cu2   N2    S    
Cu1   N1    S    
Cu1   O7    S    
C19   C24   S    
C28   H24   S    
C18   O6    A    
C11   C18   S    
C13   C14   A    
C16   H3    S    
C9    C11   A    
C19   O7    A    
C27   H18   S    
C5    C6    T    
C1    C12   S    
C21   C25   S    
C15   O4    A    
C5    C25   S    
C20   H5    S    
C23   H1    S    
C19   O8    A    
C14   H16   S    
Cu1   O5    S    
C18   O5    A    
C2    C3    S    
C14   N1    A    
C30   N6    T    
N3    C27   S    
C22   C26   S    
N4    H21   S    
C4    C24   T    
C7    C12   A    
C27   H19   S    
C10   C11   A    
C29   N5    T    
C20   H8    S    
Cu1   O3    S    
C3    C25   S    
C8    H12   S    
C17   N2    A    
C3    H9    S    
C2    C26   S    
C2    C29   S    
C20   C25   S    
C23   C26   S    
Cu1   O1    S    
Cu1   Cu2   S    
C7    C9    A    
C17   H4    S    
Cu2   O8    S    
C13   N2    A    
C1    O1    A    
C27   H20   S    
C7    H11   S    
C21   H6    S    
C22   H2    S    
C6    C15   S    
C21   C22   S    
Cu2   O4    S    
C8    C10   A    
Cu2   O2    S    
C28   H22   S    
C23   N4    S    
C15   O3    A    
C16   C17   A    
N4    C28   S    
