data_mof_unit_pretest_1098.cif
_audit_creation_date              2012-12-10T16:59:20-0500
_audit_creation_method            fapswitch 2.2
_symmetry_space_group_name_H-M    P1
_symmetry_Int_Tables_number       1
_space_group_crystal_system       triclinic
_cell_length_a                    7.739634
_cell_length_b                    8.540447
_cell_length_c                    27.662599
_cell_angle_alpha                 90.918344
_cell_angle_beta                  86.057278
_cell_angle_gamma                 93.864186
_cell_volume                      1819.90213438

loop_
_atom_site_label
_atom_site_type_symbol
_atom_type_description
_atom_site_fract_x
_atom_site_fract_y
_atom_site_fract_z
_atom_type_partial_charge
C1    C     C_R   0.546022 0.794874 0.498729 0.968573
C2    C     C_R   0.634594 0.561118 0.126397 -0.030035
C3    C     C_R   0.510071 0.504343 0.646014 -0.082684
C4    C     C_R   0.489710 0.494374 0.353996 -0.082611
C5    C     C_R   0.650264 0.551127 0.023979 0.043505
C6    C     C_R   0.349717 0.441443 0.975979 0.043573
C7    C     C_R   0.342382 0.449468 0.027308 0.039737
C8    C     C_R   0.657603 0.543084 0.972651 0.039757
C9    C     C_R   0.492939 0.503598 0.050949 0.072356
C10   C     C_R   0.506989 0.489128 0.949010 0.072387
C11   C     C_R   0.795185 0.605965 0.049574 -0.229880
C12   C     C_R   0.453978 0.205126 0.501268 0.968556
C13   C     C_R   0.204778 0.386684 0.950379 -0.229953
C14   C     C_R   0.787235 0.610156 0.099724 -0.177595
C15   C     C_R   0.212558 0.383015 0.900228 -0.178117
C16   C     C_R   0.502978 0.501603 0.593703 0.879011
C17   C     C_R   0.497006 0.498299 0.406299 0.879039
C18   C     C_R   0.811113 0.587010 0.943829 -0.236272
C19   C     C_R   0.188865 0.405559 0.056131 -0.236103
C20   C     C_2   0.570282 0.958481 0.497932 -0.362316
C21   C     C_2   0.429717 0.041519 0.502061 -0.362474
C22   C     C_R   0.670217 0.527598 0.819747 0.494308
C23   C     C_R   0.513469 0.483561 0.897679 -0.047106
C24   C     C_R   0.329213 0.466698 0.180219 0.494621
C25   C     C_R   0.372319 0.433916 0.822957 0.509197
C26   C     C_R   0.627102 0.560422 0.177000 0.508293
C27   C     C_R   0.597720 0.380211 0.717169 -0.103801
C28   C     C_R   0.401802 0.616673 0.282559 -0.104181
C29   C     C_R   0.592591 0.384900 0.667306 -0.227064
C30   C     C_R   0.407287 0.613343 0.332434 -0.227024
C31   C     C_R   0.436623 0.624200 0.674704 -0.078295
C32   C     C_R   0.562600 0.373592 0.325585 -0.078263
C33   C     C_R   0.444545 0.621049 0.725324 -0.000832
C34   C     C_R   0.486303 0.509643 0.102278 -0.046968
C35   C     C_R   0.554274 0.375366 0.274969 -0.000776
C36   C     C_R   0.523087 0.496288 0.746126 0.269024
C37   C     C_R   0.475938 0.499683 0.253877 0.269290
C38   C     C_1   0.361918 0.753740 0.652186 0.170652
C39   C     C_1   0.637220 0.244557 0.348390 0.170912
C40   C     C_R   0.372062 0.746710 0.756714 0.085965
C41   C     C_R   0.482338 0.849722 0.782510 -0.171558
C42   C     C_R   0.413344 0.966673 0.812525 -0.134239
C43   C     C_R   0.234145 0.981268 0.817030 -0.080561
C44   C     C_R   0.123762 0.879763 0.791260 -0.123213
C45   C     C_R   0.668060 0.530023 0.870295 -0.019539
C46   C     C_R   0.192366 0.763077 0.761074 -0.052229
C47   C     C_R   0.626235 0.248792 0.243865 0.085801
C48   C     C_R   0.805931 0.232521 0.239287 -0.052769
C49   C     C_R   0.874041 0.115099 0.209303 -0.123993
C50   C     C_R   0.763155 0.012739 0.183968 -0.080426
C51   C     C_R   0.583950 0.027212 0.188711 -0.134666
C52   C     C_R   0.515454 0.144930 0.218512 -0.171227
C53   C     C_R   0.331625 0.463452 0.129665 -0.019493
C54   C     C_R   0.815808 0.580424 0.893716 -0.159654
C55   C     C_R   0.184019 0.412613 0.106243 -0.159722
C56   C     C_R   0.365074 0.432423 0.873557 -0.030222
H1    H     H_    0.013934 0.382846 0.463448 0.198008
H2    H     H_    0.097360 0.341757 0.882416 0.188056
H3    H     H_    0.918271 0.646648 0.032263 0.148231
H4    H     H_    0.081768 0.345789 0.967690 0.148194
H5    H     H_    0.931406 0.627457 0.958514 0.151222
H6    H     H_    0.068653 0.364870 0.041446 0.151134
H7    H     H_    0.702857 0.009984 0.493928 0.182733
H8    H     H_    0.297143 0.990016 0.506065 0.182672
H9    H     H_    0.621413 0.839907 0.779184 0.153858
H10   H     H_    0.498722 0.046005 0.832288 0.135506
H11   H     H_    0.180830 0.071323 0.840416 0.149614
H12   H     H_    0.986065 0.617153 0.536552 0.197985
H13   H     H_    0.985044 0.891451 0.794701 0.151227
H14   H     H_    0.105902 0.684967 0.741249 0.187911
H15   H     H_    0.892773 0.311310 0.258769 0.188376
H16   H     H_    0.012764 0.103524 0.205674 0.151404
H17   H     H_    0.816088 0.922132 0.160726 0.150733
H18   H     H_    0.498186 0.947222 0.169289 0.135330
H19   H     H_    0.376385 0.154720 0.222006 0.154074
H20   H     H_    0.936204 0.616511 0.873352 0.198409
H21   H     H_    0.063589 0.376644 0.126608 0.198174
H22   H     H_    0.350669 0.705802 0.354252 0.162093
H23   H     H_    0.649584 0.293106 0.645278 0.162244
H24   H     H_    0.341934 0.711483 0.265943 0.150439
H25   H     H_    0.657799 0.285094 0.733560 0.150855
H26   H     H_    0.902367 0.651620 0.117534 0.188204
N1    N     N_R   0.522470 0.484041 0.797436 -0.346170
N2    N     N_R   0.476801 0.510790 0.202534 -0.346105
N3    N     N_2   0.950320 0.457960 0.486880 -0.171585
N4    N     N_2   0.049680 0.542040 0.513120 -0.171597
N5    N     N_1   0.302464 0.857154 0.634202 -0.198041
N6    N     N_1   0.696611 0.141547 0.366603 -0.198259
O1    O     O_R   0.389250 0.738570 0.503220 -0.611975
O2    O     O_2   0.181875 0.423660 0.206976 -0.588360
O3    O     O_2   0.768819 0.607461 0.200647 -0.558426
O4    O     O_2   0.230513 0.387194 0.799306 -0.557702
O5    O     O_R   0.610750 0.261430 0.496780 -0.611949
O6    O     O_R   0.678390 0.711630 0.494810 -0.629916
O7    O     O_R   0.321610 0.288370 0.505190 -0.629956
O8    O     O_R   0.355440 0.513440 0.575450 -0.603884
O9    O     O_R   0.644560 0.486560 0.424550 -0.603882
O10   O     O_R   0.644590 0.486500 0.567040 -0.627468
O11   O     O_R   0.355410 0.513500 0.432960 -0.627390
O12   O     O_2   0.817457 0.570980 0.792994 -0.588168
Zn1   Zn    Zn3+2 0.306940 0.517990 0.505620 0.962727
Zn2   Zn    Zn3+2 0.693060 0.482010 0.494380 0.962724

loop_
_geom_bond_atom_site_label_1
_geom_bond_atom_site_label_2
_ccdc_geom_bond_type
C23   C45   A    
C27   C29   A    
H12   N4    S    
C41   C42   A    
C25   C56   A    
C52   H19   S    
C35   C47   S    
C23   C56   A    
C13   H4    S    
N3    N4    D    
C40   C46   A    
C35   C37   A    
C5    C11   A    
C55   H21   S    
C11   C14   A    
C36   N1    S    
C33   C36   A    
C32   C39   S    
C3    C29   A    
C21   H8    S    
C3    C16   S    
C1    O6    A    
C25   O4    S    
C49   H16   S    
C1    O1    A    
C31   C33   A    
C37   N2    S    
O9    Zn2   S    
C2    C34   A    
O8    Zn1   S    
C39   N6    T    
C11   H3    S    
C44   C46   A    
C53   C55   A    
C28   H24   S    
C16   O8    A    
C33   C40   S    
C22   O12   S    
C51   C52   A    
C32   C35   A    
C27   H25   S    
C2    C26   A    
C50   H17   S    
C41   H9    S    
C26   O3    S    
O10   Zn2   S    
C12   C21   S    
C8    C18   A    
C51   H18   S    
C47   C52   A    
C43   C44   A    
C5    C9    A    
C47   C48   A    
C29   H23   S    
C50   C51   A    
C44   H13   S    
C12   O7    A    
C3    C31   A    
C17   O11   A    
C4    C32   A    
C54   H20   S    
C4    C17   S    
C8    C10   A    
C40   C41   A    
O11   Zn1   S    
C45   C54   A    
C7    C19   A    
C13   C15   A    
C9    C34   A    
C10   C23   A    
C15   H2    S    
C12   O5    A    
C42   C43   A    
C14   H26   S    
C48   H15   S    
C42   H10   S    
C19   C55   A    
C7    C9    A    
C48   C49   A    
C1    C20   S    
C26   N2    A    
O1    Zn1   S    
C24   O2    S    
O5    Zn2   S    
C6    C10   A    
C5    C8    A    
C18   H5    S    
C6    C7    A    
C27   C36   A    
C31   C38   S    
C38   N5    T    
C15   C56   A    
C20   H7    S    
C28   C30   A    
C24   C53   A    
C22   N1    A    
C6    C13   A    
C16   O10   A    
C28   C37   A    
H1    N3    S    
C24   N2    A    
C2    C14   A    
C46   H14   S    
C18   C54   A    
C30   H22   S    
C22   C45   A    
C20   C21   D    
O6    Zn2   S    
C34   C53   A    
C43   H11   S    
C49   C50   A    
C25   N1    A    
C19   H6    S    
N4    Zn1   S    
C17   O9    A    
C4    C30   A    
N3    Zn2   S    
O7    Zn1   S    
