data_mof_unit_pretest_1120.cif
_audit_creation_date              2012-12-11T15:20:40-0500
_audit_creation_method            fapswitch 2.2
_symmetry_space_group_name_H-M    P1
_symmetry_Int_Tables_number       1
_space_group_crystal_system       triclinic
_cell_length_a                    12.984762
_cell_length_b                    13.056341
_cell_length_c                    15.305589
_cell_angle_alpha                 116.009751
_cell_angle_beta                  63.175531
_cell_angle_gamma                 97.087929
_cell_volume                      2072.06929799

loop_
_atom_site_label
_atom_site_type_symbol
_atom_type_description
_atom_site_fract_x
_atom_site_fract_y
_atom_site_fract_z
_atom_type_partial_charge
C1    C     C_R   0.022189 0.833815 0.030607 -0.117230
C2    C     C_R   0.321548 0.520664 0.781334 -0.098922
C3    C     C_R   0.239877 0.487142 0.113164 0.450982
C4    C     C_R   0.699986 0.405739 0.210782 -0.121178
C5    C     C_R   0.981901 0.304794 0.700000 0.489933
C6    C     C_R   0.328250 0.556245 0.088377 -0.174864
C7    C     C_R   0.927182 0.207878 0.698266 -0.110535
C8    C     C_R   0.331390 0.445493 0.678869 -0.015141
C9    C     C_R   0.080338 0.145175 0.974506 -0.020447
C10   C     C_R   0.042501 0.001905 0.414383 -0.172017
C11   C     C_R   0.028989 0.096269 0.506405 -0.192429
C12   C     C_R   0.704296 0.431241 0.306990 0.039591
C13   C     C_R   0.928840 0.116647 0.602819 0.146072
C14   C     C_R   0.841156 0.042868 0.607773 -0.152292
C15   C     C_R   0.854859 0.946821 0.514074 -0.183244
C16   C     C_R   0.740480 0.573091 0.942322 -0.127245
C17   C     C_R   0.956106 0.927106 0.418297 0.155657
C18   C     C_R   0.638107 0.433347 0.487405 -0.166168
C19   C     C_R   0.545266 0.434557 0.580415 -0.162131
C20   C     C_R   0.439449 0.400040 0.578489 0.146811
C21   C     C_R   0.435674 0.341580 0.478329 -0.164465
C22   C     C_R   0.528406 0.340550 0.385292 -0.153883
C23   C     C_R   0.637487 0.554656 0.014934 0.132152
C24   C     C_R   0.625745 0.396567 0.391938 0.138764
C25   C     C_2   0.429289 0.571470 0.108028 -0.182655
C26   C     C_2   0.526348 0.590457 0.035694 -0.200888
C27   C     C_2   0.884196 0.967663 0.038804 0.463088
C28   C     C_R   0.954244 0.718341 0.316445 -0.109189
C29   C     C_2   0.874044 0.054862 0.131892 -0.107714
C30   C     C_R   0.660212 0.478668 0.045390 -0.113033
C31   C     C_R   0.042532 0.818355 0.219158 -0.112247
C32   C     C_R   0.800832 0.490224 0.305109 -0.122828
C33   C     C_R   0.922992 0.749438 0.934837 -0.079602
C34   C     C_R   0.976985 0.826150 0.322264 0.014289
C35   C     C_R   0.945021 0.855264 0.999153 -0.089083
C36   C     C_R   0.313708 0.591784 0.021952 0.442174
C37   C     C_R   0.905318 0.200395 0.791792 -0.214892
C38   C     C_R   0.220223 0.436119 0.686044 -0.107732
C39   C     C_R   0.094991 0.250651 0.046545 -0.102937
C40   C     C_R   0.996666 0.167574 0.950180 -0.036733
H1    H     H_    0.065972 0.897414 0.071655 0.096801
H2    H     H_    0.553821 0.473315 0.655074 0.111923
H3    H     H_    0.357898 0.306746 0.472464 0.112050
H4    H     H_    0.518389 0.305087 0.311461 0.115451
H5    H     H_    0.431033 0.545365 0.165551 0.133731
H6    H     H_    0.911667 0.049292 0.180361 0.068393
H7    H     H_    0.911971 0.693232 0.382197 0.103180
H8    H     H_    0.599817 0.438960 0.094874 0.094802
H9    H     H_    0.084466 0.885449 0.196829 0.098007
H10   H     H_    0.839680 0.509739 0.359212 0.100286
H11   H     H_    0.875317 0.735105 0.889178 0.091231
H12   H     H_    0.855438 0.139269 0.820319 0.140702
H13   H     H_    0.195430 0.385345 0.622258 0.145407
H14   H     H_    0.966302 0.105345 0.894308 0.131982
H15   H     H_    0.259059 0.475411 0.226532 0.313043
H16   H     H_    0.954509 0.320240 0.592105 0.315073
H17   H     H_    0.788368 0.887747 0.516253 0.120575
H18   H     H_    0.527720 0.613453 0.975301 0.164432
H19   H     H_    0.851952 0.917256 0.914995 0.303646
H20   H     H_    0.750188 0.616373 0.893597 0.101848
H21   H     H_    0.371492 0.740252 0.068399 0.321502
H22   H     H_    0.154966 0.264845 0.080773 0.163245
H23   H     H_    0.390003 0.547829 0.805879 0.135185
H24   H     H_    0.123139 0.985139 0.341745 0.120724
H25   H     H_    0.099830 0.150289 0.502977 0.132523
H26   H     H_    0.764699 0.058486 0.683436 0.121950
H27   H     H_    0.645829 0.347563 0.178668 0.097098
H28   H     H_    0.714553 0.471086 0.494214 0.114265
N1    N     N_R   0.037310 0.720000 0.995790 -0.032843
N2    N     N_R   0.824890 0.517960 0.936420 -0.042754
N3    N     N_R   0.003210 0.648190 0.211380 -0.043890
N4    N     N_R   0.774330 0.457010 0.995840 -0.050151
N5    N     N_R   0.053760 0.709140 0.151960 -0.038651
N6    N     N_R   0.853860 0.498840 0.211410 -0.041139
N7    N     N_R   0.974240 0.667310 0.936390 -0.040522
N8    N     N_R   0.225670 0.542990 0.004160 -0.106554
N9    N     N_R   0.946240 0.290860 0.848040 -0.070657
N10   N     N_R   0.146140 0.501160 0.788590 -0.040544
N11   N     N_R   0.025760 0.332690 0.063610 -0.040611
N12   N     N_R   0.962690 0.280000 0.004210 -0.049844
N13   N     N_R   0.209210 0.553840 0.847990 -0.036770
N14   N     N_R   0.175110 0.482040 0.063580 -0.105652
N15   N     N_R   0.996790 0.351810 0.788620 -0.072136
N16   N     N_R   0.790790 0.446160 0.152010 -0.044302
Ni1   Ni    Ni4+2 0.130310 0.630310 0.999970 0.257081
Ni2   Ni    Ni4+2 0.869690 0.369690 0.000030 0.215990
Ni3   Ni    Ni4+2 0.985640 0.509470 0.863740 0.259235
Ni4   Ni    Ni4+2 0.014360 0.490530 0.136260 0.250261
O1    O     O_3   0.203816 0.452385 0.194570 -0.774638
O2    O     O_3   0.991973 0.362526 0.640111 -0.789503
O3    O     O_3   0.827782 0.983237 0.987117 -0.761582
O4    O     O_3   0.347524 0.691513 0.010922 -0.776668

loop_
_geom_bond_atom_site_label_1
_geom_bond_atom_site_label_2
_ccdc_geom_bond_type
N10   Ni3   S    
N15   Ni3   S    
C28   H7    S    
C27   C29   D    
C19   C20   A    
C3    C6    A    
C8    C20   S    
C18   C24   A    
C30   H8    S    
N16   Ni2   S    
C32   N6    A    
C5    N15   A    
C31   N5    A    
C6    C25   S    
N9    N15   A    
C10   C17   A    
C18   H28   S    
C9    C39   A    
C18   C19   A    
C16   H20   S    
C23   C26   S    
N12   Ni2   S    
C36   N8    A    
C21   H3    S    
C33   N7    A    
C22   H4    S    
C40   N12   A    
C27   O3    S    
C4    C12   A    
C5    O2    S    
H21   O4    S    
C36   O4    S    
H16   O2    S    
C28   C34   A    
C21   C22   A    
C12   C32   A    
C15   H17   S    
C8    C38   A    
C31   H9    S    
N2    Ni3   S    
N11   Ni4   S    
C7    C37   A    
C2    C8    A    
C23   C30   A    
C16   N2    A    
N8    N14   A    
N3    N5    A    
C37   H12   S    
C38   N10   A    
C27   C35   S    
C25   C26   D    
C37   N9    A    
C9    C40   A    
C1    N1    A    
N3    Ni4   S    
C39   N11   A    
C30   N4    A    
C4    N16   A    
C32   H10   S    
C3    N14   A    
C14   H26   S    
C31   C34   A    
H19   O3    S    
C26   H18   S    
N5    Ni1   S    
C1    H1    S    
N9    Ni2   S    
C16   C23   A    
C40   H14   S    
C22   C24   A    
C28   N3    A    
C17   C34   S    
C25   H5    S    
N1    Ni1   S    
C2    H23   S    
C1    C35   A    
C5    C7    A    
N7    Ni3   S    
C15   C17   A    
C39   H22   S    
C10   H24   S    
N6    N16   A    
C4    H27   S    
N4    Ni2   S    
C19   H2    S    
C33   H11   S    
C12   C24   S    
C29   H6    S    
C3    O1    S    
H15   O1    S    
C11   C13   A    
N10   N13   A    
C38   H13   S    
N14   Ni4   S    
C33   C35   A    
C6    C36   A    
N1    N7    A    
C10   C11   A    
N11   N12   A    
C7    C13   S    
C20   C21   A    
C14   C15   A    
C2    N13   A    
N2    N4    A    
N6    Ni4   S    
C13   C14   A    
N8    Ni1   S    
N13   Ni1   S    
C11   H25   S    
