data_mof_unit_pretest_358.cif
_audit_creation_date              2012-10-26T20:52:01-0400
_audit_creation_method            fapswitch 2.2
_symmetry_space_group_name_H-M    P1
_symmetry_Int_Tables_number       1
_space_group_crystal_system       triclinic
_cell_length_a                    8.779228
_cell_length_b                    15.995735
_cell_length_c                    14.754626
_cell_angle_alpha                 89.817569
_cell_angle_beta                  97.548006
_cell_angle_gamma                 90.017418
_cell_volume                      2054.03119587

loop_
_atom_site_label
_atom_site_type_symbol
_atom_type_description
_atom_site_fract_x
_atom_site_fract_y
_atom_site_fract_z
_atom_type_partial_charge
Br1   Br    Br    0.961047 0.419820 0.362201 -0.423261
Br2   Br    Br    0.038953 0.580178 0.637799 -0.423173
Br3   Br    Br    0.741638 0.623437 0.131977 -0.429478
Br4   Br    Br    0.258418 0.376544 0.868028 -0.429422
Br5   Br    Br    0.740379 0.624179 0.904865 -0.413325
Br6   Br    Br    0.259607 0.375837 0.095133 -0.413157
C1    C     C_R   0.500107 0.340981 0.500141 0.550043
C2    C     C_R   0.796348 0.500523 0.522560 0.580103
C3    C     C_2   0.040990 0.487343 0.466818 0.115944
C4    C     C_2   0.959009 0.512656 0.533182 0.115940
C5    C     C_R   0.493327 0.955357 0.582422 -0.019735
C6    C     C_R   0.506734 0.044645 0.417554 -0.019708
C7    C     C_R   0.494538 0.912549 0.499045 -0.004429
C8    C     C_R   0.505499 0.087451 0.500936 -0.004441
C9    C     C_R   0.500915 0.956530 0.416571 -0.020140
C10   C     C_R   0.499130 0.043467 0.583408 -0.020144
C11   C     C_1   0.496901 0.822672 0.498982 -0.034240
C12   C     C_R   0.499891 0.659018 0.499859 0.550047
C13   C     C_1   0.503112 0.177326 0.501011 -0.034287
C14   C     C_1   0.501422 0.252194 0.500654 0.010801
C15   C     C_1   0.498581 0.747805 0.499346 0.010833
C16   C     C_R   0.601267 0.552288 0.959581 0.155770
C17   C     C_R   0.398744 0.447717 0.040420 0.155765
C18   C     C_R   0.495348 0.089791 0.670364 0.035262
C19   C     C_R   0.623698 0.136176 0.708607 -0.096953
C20   C     C_R   0.620315 0.179406 0.790551 -0.099674
C21   C     C_R   0.489154 0.176493 0.834878 -0.072869
C22   C     C_R   0.360927 0.130577 0.797153 -0.086575
C23   C     C_R   0.499814 0.500114 0.902866 -0.038098
C24   C     C_R   0.363711 0.087384 0.715120 -0.081723
C25   C     C_R   0.504711 0.910191 0.329624 0.035197
C26   C     C_R   0.376390 0.863765 0.291414 -0.097011
C27   C     C_R   0.379802 0.820488 0.209503 -0.099691
C28   C     C_R   0.510958 0.823396 0.165172 -0.072875
C29   C     C_R   0.639149 0.869360 0.202858 -0.086586
C30   C     C_R   0.636339 0.912601 0.284861 -0.081739
C31   C     C_R   0.489598 0.907663 0.668874 0.034063
C32   C     C_R   0.616568 0.908904 0.737560 -0.078289
C33   C     C_R   0.612980 0.863647 0.818515 -0.083089
C34   C     C_R   0.500200 0.499888 0.097136 -0.038123
C35   C     C_R   0.483039 0.816788 0.831318 -0.073704
C36   C     C_R   0.356403 0.815133 0.763193 -0.093486
C37   C     C_R   0.359347 0.860472 0.682252 -0.095019
C38   C     C_R   0.510559 0.092343 0.331107 0.034018
C39   C     C_R   0.640705 0.139689 0.317869 -0.095016
C40   C     C_R   0.643744 0.185040 0.236945 -0.093427
C41   C     C_R   0.517322 0.183231 0.168682 -0.073721
C42   C     C_R   0.387499 0.136207 0.181333 -0.083138
C43   C     C_R   0.383803 0.090951 0.262279 -0.078260
C44   C     C_R   0.398477 0.447876 0.944086 0.158296
C45   C     C_R   0.601547 0.552123 0.055917 0.158285
C46   C     C_1   0.499861 0.500079 0.802629 0.268125
C47   C     C_1   0.500147 0.499922 0.197372 0.268091
C48   C     C_R   0.203652 0.499476 0.477440 0.580112
Cu1   Cu    Cu3+1 0.500040 0.500000 0.589220 1.113314
Cu2   Cu    Cu3+1 0.499960 0.500000 0.410780 1.113280
H1    H     H_    0.726250 0.138507 0.675105 0.112397
H2    H     H_    0.736453 0.947860 0.313528 0.107787
H3    H     H_    0.718157 0.944651 0.728190 0.109180
H4    H     H_    0.711064 0.864743 0.871259 0.133752
H5    H     H_    0.480541 0.781713 0.893976 0.142387
H6    H     H_    0.255915 0.778748 0.773119 0.151648
H7    H     H_    0.260393 0.858933 0.630036 0.116990
H8    H     H_    0.739499 0.141347 0.370191 0.117050
H9    H     H_    0.744141 0.221555 0.227139 0.151795
H10   H     H_    0.519896 0.218313 0.106036 0.142332
H11   H     H_    0.289589 0.134985 0.128475 0.133633
H12   H     H_    0.719489 0.215031 0.819787 0.138530
H13   H     H_    0.282295 0.055082 0.271528 0.109227
H14   H     H_    0.486875 0.209825 0.898428 0.144297
H15   H     H_    0.259337 0.128496 0.831470 0.129001
H16   H     H_    0.263574 0.052157 0.686424 0.107732
H17   H     H_    0.273844 0.861435 0.324920 0.112424
H18   H     H_    0.280658 0.784824 0.180298 0.138548
H19   H     H_    0.513262 0.790021 0.101651 0.144371
H20   H     H_    0.740735 0.871436 0.168538 0.129030
N1    N     N_1   0.500050 0.499980 0.276720 -0.145548
N2    N     N_1   0.499950 0.500020 0.723280 -0.145538
O1    O     O_R   0.500070 0.380310 0.575330 -0.498955
O2    O     O_R   0.499930 0.619690 0.424670 -0.498966
O3    O     O_R   0.500000 0.380310 0.424640 -0.479858
O4    O     O_R   0.500000 0.619690 0.575360 -0.479841
O5    O     O_R   0.274870 0.500000 0.557960 -0.474715
O6    O     O_R   0.725130 0.500000 0.442040 -0.474715
O7    O     O_R   0.274790 0.500000 0.407270 -0.464625
O8    O     O_R   0.725210 0.500000 0.592730 -0.464631

loop_
_geom_bond_atom_site_label_1
_geom_bond_atom_site_label_2
_ccdc_geom_bond_type
C38   C43   A    
Cu1   Cu2   S    
C16   C23   A    
C12   C15   S    
C35   C36   A    
C29   C30   A    
C35   H5    S    
C37   H7    S    
Cu2   O3    S    
C33   C35   A    
C39   C40   A    
C20   C21   A    
C30   H2    S    
C32   C33   A    
C33   H4    S    
C17   C34   A    
C28   C29   A    
C5    C31   S    
Br5   C16   S    
C25   C26   A    
C3    C4    D    
C36   H6    S    
C41   H10   S    
C28   H19   S    
C10   C18   S    
C43   H13   S    
C19   H1    S    
C46   N2    T    
C48   O5    A    
Cu2   O6    S    
C23   C44   A    
C29   H20   S    
Br1   C3    S    
C18   C19   A    
C40   H9    S    
C26   H17   S    
Cu1   N2    S    
Br3   C45   S    
C17   C44   A    
C19   C20   A    
C11   C15   T    
Cu2   N1    S    
Br4   C44   S    
C31   C37   A    
C47   N1    T    
C31   C32   A    
Cu1   O1    S    
C5    C10   A    
C41   C42   A    
C6    C9    A    
C27   C28   A    
Cu1   O4    S    
C21   H14   S    
C12   O2    A    
C42   C43   A    
C1    O3    A    
C6    C8    A    
C34   C47   S    
C7    C9    A    
C8    C10   A    
C22   H15   S    
C36   C37   A    
Cu1   O5    S    
Br2   C4    S    
C38   C39   A    
C1    O1    A    
C40   C41   A    
C2    O6    A    
C8    C13   S    
C48   O7    A    
C24   H16   S    
C9    C25   S    
C34   C45   A    
C13   C14   T    
C39   H8    S    
Cu2   O2    S    
C7    C11   S    
C20   H12   S    
C26   C27   A    
Cu1   O8    S    
C22   C24   A    
C6    C38   S    
C5    C7    A    
Cu2   O7    S    
Br6   C17   S    
C12   O4    A    
C2    O8    A    
C42   H11   S    
C18   C24   A    
C32   H3    S    
C27   H18   S    
C2    C4    S    
C1    C14   S    
C21   C22   A    
C25   C30   A    
C3    C48   S    
C16   C45   A    
C23   C46   S    
