data_mof_unit_pretest_1127.cif
_audit_creation_date              2013-03-05T15:51:40-0500
_audit_creation_method            fapswitch 2.2
_symmetry_space_group_name_H-M    P1
_symmetry_Int_Tables_number       1
_space_group_crystal_system       triclinic
_cell_length_a                    10.659424
_cell_length_b                    10.83742
_cell_length_c                    9.584632
_cell_angle_alpha                 90.69195
_cell_angle_beta                  89.577463
_cell_angle_gamma                 92.608262
_cell_volume                      1105.96942625

loop_
_atom_site_label
_atom_site_type_symbol
_atom_site_description
_atom_site_fract_x
_atom_site_fract_y
_atom_site_fract_z
_atom_type_partial_charge
O1    O     O_R   0.499990 0.319640 0.618810 -0.547998
O2    O     O_R   0.500000 0.319660 0.381240 -0.590890
C1    C     C_R   0.512308 0.263551 0.499629 0.866307
O3    O     O_R   0.316850 0.499960 0.618770 -0.606831
O4    O     O_R   0.316860 0.499980 0.381190 -0.539261
C2    C     C_R   0.259750 0.499993 0.500590 0.896487
Cu1   Cu    Cu3+1 0.499990 0.499990 0.640660 0.959296
Cu2   Cu    Cu3+1 0.500010 0.500010 0.359340 0.992092
O5    O     O_R   0.500000 0.680340 0.618760 -0.626137
O6    O     O_R   0.500010 0.680360 0.381190 -0.606879
O7    O     O_R   0.683140 0.500020 0.618810 -0.569887
O8    O     O_R   0.683150 0.500040 0.381230 -0.578978
C3    C     C_R   0.494240 0.737948 0.501865 0.779382
C4    C     C_R   0.740324 0.499466 0.499322 0.840345
C5    C     C_3   0.039191 0.506634 0.633703 -0.183691
C6    C     C_3   0.952465 0.400553 0.571595 -0.215982
H1    H     H_    0.912701 0.318986 0.628322 0.200516
H2    H     H_    0.073239 0.512608 0.742887 0.196515
C7    C     C_3   0.876650 0.498773 0.497723 -0.186396
C8    C     C_3   0.961124 0.604919 0.560570 -0.286473
C9    C     C_3   0.046337 0.596055 0.430266 0.325297
C10   C     C_3   0.961839 0.492308 0.368373 0.277962
C11   C     C_3   0.037875 0.396656 0.441213 0.305678
C12   C     C_3   0.123519 0.500190 0.502127 -0.091224
H3    H     H_    0.927427 0.691174 0.608672 0.157231
H4    H     H_    0.490912 0.108811 0.278955 0.170509
C13   C     C_R   0.607763 0.124099 0.745641 0.429530
C14   C     C_R   0.592254 0.068088 0.876552 -0.240236
H5    H     H_    0.631943 0.111462 0.969615 0.149696
C15   C     C_R   0.523910 0.956543 0.888224 -0.200441
H6    H     H_    0.506747 0.916554 0.989975 0.160245
C16   C     C_R   0.482988 0.893140 0.768549 -0.162884
H7    H     H_    0.428013 0.808441 0.784473 0.185016
C17   C     C_R   0.507742 0.942248 0.634286 0.022759
C18   C     C_R   0.549544 0.067236 0.626486 0.055158
C19   C     C_R   0.528739 0.130260 0.500305 -0.091244
C20   C     C_R   0.503144 0.063023 0.377480 -0.207423
H8    H     H_    0.477752 0.886205 0.282011 0.167977
C21   C     C_R   0.491261 0.935661 0.380062 -0.191688
C22   C     C_R   0.492289 0.873329 0.507232 -0.075737
H9    H     H_    0.358420 0.359608 0.128501 0.159384
C23   C     C_R   0.667218 0.664318 0.144920 -0.106089
H10   H     H_    0.676028 0.671501 0.254874 0.184428
C24   C     C_R   0.748422 0.744979 0.072972 -0.152088
H11   H     H_    0.812118 0.807825 0.129518 0.152760
C25   C     C_R   0.748807 0.744529 0.929232 -0.164805
H12   H     H_    0.812253 0.807525 0.873236 0.153990
C26   C     C_R   0.667214 0.664161 0.856594 -0.135215
H13   H     H_    0.674253 0.672726 0.746693 0.193726
C27   C     C_R   0.582167 0.580769 0.925549 0.196488
C28   C     C_R   0.582169 0.580760 0.075217 0.222568
N1    N     N_R   0.501210 0.501210 0.147910 -0.201703
C29   C     C_R   0.422187 0.422835 0.073520 -0.031402
H14   H     H_    0.358488 0.359655 0.869814 0.145926
C30   C     C_R   0.422215 0.422876 0.925527 -0.044645
N2    N     N_R   0.501250 0.501290 0.852040 -0.202473
O9    O     O_3   0.098756 0.697016 0.357316 -0.691752
H15   H     H_    0.026816 0.746965 0.332205 0.331376
N3    N     N_R   0.921296 0.481220 0.223632 0.136275
O10   O     O_R   0.963876 0.560062 0.131638 -0.349744
O11   O     O_R   0.851060 0.386278 0.183531 -0.368311
O12   O     O_3   0.081542 0.289421 0.378652 -0.711346
H16   H     H_    0.005224 0.237194 0.357095 0.345502
O13   O     O_3   0.686675 0.227884 0.730333 -0.735682
H17   H     H_    0.719059 0.254904 0.823065 0.335120

loop_
_geom_bond_atom_site_label_1
_geom_bond_atom_site_label_2
_geom_bond_distance
_ccdc_geom_bond_type
C4    C7    1.453489 S    
C5    H2    1.110348 S    
C15   C16   1.392546 A    
C11   C12   1.527109 S    
H4    C20   1.083522 S    
C9    O9    1.398334 S    
O12   H16   0.991266 S    
C10   N3    1.458038 S    
O4    Cu2   1.961924 S    
C19   C20   1.399001 A    
C27   N2    1.381656 A    
Cu2   N1    2.026620 S    
C7    C8    1.547228 S    
C23   C28   1.416980 A    
Cu2   O8    1.964932 S    
C2    C12   1.452206 S    
O13   H17   0.991927 S    
C30   N2    1.366959 A    
C14   C15   1.387982 A    
O2    C1    1.304091 A    
O8    C4    1.289680 A    
Cu1   Cu2   2.696350 S    
C20   C21   1.380830 A    
O1    Cu1   1.963200 S    
C9    C10   1.525429 S    
C16   H7    1.078133 S    
Cu1   O7    1.961922 S    
C15   H6    1.082941 S    
H9    C29   1.081800 S    
O9    H15   0.991288 S    
H8    C21   1.083516 S    
C23   C24   1.387740 A    
Cu1   N2    2.026019 S    
C6    C7    1.546745 S    
C17   C22   1.427494 A    
O4    C2    1.292281 A    
C1    C19   1.463106 S    
C26   C27   1.416487 A    
C26   H13   1.060370 S    
C24   C25   1.377616 A    
C27   C28   1.434511 A    
C6    C11   1.541999 S    
C29   C30   1.418462 A    
C5    C8    1.557459 S    
O7    C4    1.293464 A    
C25   C26   1.387474 A    
N3    O11   1.300580 A    
C23   H10   1.060350 S    
C21   C22   1.401024 A    
C11   O12   1.398244 S    
C5    C6    1.557409 S    
C14   H5    1.083000 S    
N3    O10   1.300193 A    
C7    C10   1.534146 S    
C28   N1    1.382510 A    
C8    C9    1.543499 S    
O3    Cu1   1.964933 S    
O3    C2    1.289842 A    
C17   C18   1.409238 A    
C8    H3    1.110443 S    
C9    C12   1.527759 S    
C13   C14   1.405830 A    
Cu1   O5    1.968280 S    
O5    C3    1.292378 A    
C10   C11   1.523546 S    
C5    C12   1.546006 S    
C3    C22   1.468540 S    
H14   C30   1.081743 S    
C13   C18   1.424014 A    
C25   H12   1.083057 S    
C13   O13   1.382108 S    
Cu2   O6    1.963200 S    
O2    Cu2   1.968283 S    
C24   H11   1.083068 S    
C18   C19   1.419866 A    
N1    C29   1.366914 A    
C6    H1    1.109409 S    
O1    C1    1.296101 A    
O6    C3    1.309995 A    
C16   C17   1.416917 A    
