data_mof_unit_pretest_266.cif
_audit_creation_date              2012-10-26T20:51:11-0400
_audit_creation_method            fapswitch 2.2
_symmetry_space_group_name_H-M    P1
_symmetry_Int_Tables_number       1
_space_group_crystal_system       triclinic
_cell_length_a                    12.993318
_cell_length_b                    10.831296
_cell_length_c                    9.539039
_cell_angle_alpha                 90.016537
_cell_angle_beta                  96.115036
_cell_angle_gamma                 89.975091
_cell_volume                      1334.83283113

loop_
_atom_site_label
_atom_site_type_symbol
_atom_type_description
_atom_site_fract_x
_atom_site_fract_y
_atom_site_fract_z
_atom_type_partial_charge
C1    C     C_R   0.500136 0.262335 0.499904 0.545565
C2    C     C_R   0.504992 0.935698 0.371947 -0.174915
C3    C     C_R   0.507156 0.870868 0.499852 0.012346
C4    C     C_R   0.300963 0.498415 0.473767 0.540406
C5    C     C_R   0.519997 0.936487 0.626499 0.027285
C6    C     C_3   0.459063 0.930313 0.750672 -0.265182
C7    C     C_3   0.459530 0.070329 0.750926 -0.275970
C8    C     C_R   0.532942 0.601522 0.078584 0.154503
C9    C     C_R   0.456664 0.405897 0.068091 -0.010169
C10   C     C_R   0.456207 0.406208 0.919189 -0.017379
C11   C     C_R   0.534703 0.600447 0.931485 0.149135
C12   C     C_R   0.026537 0.535171 0.547472 0.002823
C13   C     C_3   0.641026 0.653921 0.943764 -0.263440
C14   C     C_3   0.636906 0.660268 0.101987 -0.290310
C15   C     C_R   0.500565 0.737661 0.499985 0.558605
C16   C     C_R   0.699391 0.499489 0.525936 0.593291
C17   C     C_R   0.812433 0.504457 0.539121 0.030929
C18   C     C_R   0.189296 0.488528 0.458908 0.010922
C19   C     C_R   0.033560 0.390011 0.353560 -0.129195
C20   C     C_R   0.139461 0.409528 0.357761 -0.138395
C21   C     C_R   0.133184 0.551179 0.553252 -0.124945
C22   C     C_R   0.814370 0.339316 0.353081 0.037562
C23   C     C_R   0.975345 0.452620 0.448090 0.028884
C24   C     C_R   0.792926 0.360438 0.207578 -0.075723
C25   C     C_R   0.743039 0.269996 0.120512 -0.105534
C26   C     C_R   0.716851 0.156854 0.177545 -0.107679
C27   C     C_R   0.740142 0.134353 0.321765 -0.106543
C28   C     C_R   0.787342 0.225838 0.409778 -0.087593
C29   C     C_R   0.867897 0.434596 0.446451 -0.077283
C30   C     C_R   0.863982 0.588096 0.635378 0.216149
C31   C     C_R   0.971308 0.600807 0.640586 -0.133071
C32   C     C_R   0.519947 0.063736 0.626382 0.019379
C33   C     C_R   0.506213 0.129103 0.499688 0.009973
C34   C     C_R   0.503547 0.064126 0.371821 -0.170007
Cu1   Cu    Cu3+1 0.499990 0.499980 0.640670 0.954750
Cu2   Cu    Cu3+1 0.500010 0.500020 0.359330 0.945054
H1    H     H_    0.504165 0.890193 0.845198 0.127902
H2    H     H_    0.998499 0.325357 0.276347 0.122267
H3    H     H_    0.011484 0.664624 0.715066 0.092726
H4    H     H_    0.183124 0.359350 0.285551 0.117745
H5    H     H_    0.172878 0.612529 0.631151 0.111877
H6    H     H_    0.497261 0.111936 0.271552 0.132871
H7    H     H_    0.499635 0.887835 0.271738 0.130098
H8    H     H_    0.380705 0.889962 0.724118 0.137704
H9    H     H_    0.816039 0.446072 0.161751 0.094777
H10   H     H_    0.725772 0.287087 0.008668 0.110927
H11   H     H_    0.679129 0.086349 0.109946 0.095925
H12   H     H_    0.381373 0.111487 0.725078 0.133061
H13   H     H_    0.721404 0.046049 0.365555 0.120771
H14   H     H_    0.804191 0.207761 0.521535 0.099576
H15   H     H_    0.855116 0.714372 0.779340 0.311433
H16   H     H_    0.505724 0.110294 0.844893 0.125351
H17   H     H_    0.423061 0.328676 0.118696 0.109641
H18   H     H_    0.421750 0.329614 0.858657 0.112878
H19   H     H_    0.699320 0.586486 0.913803 0.191214
H20   H     H_    0.643676 0.746082 0.893352 0.147518
H21   H     H_    0.695347 0.601515 0.162951 0.156820
H22   H     H_    0.632496 0.756325 0.141979 0.116897
N1    N     N_R   0.500660 0.500930 0.148010 -0.226026
N2    N     N_R   0.500660 0.500890 0.852110 -0.233786
O1    O     O_R   0.500000 0.319640 0.618810 -0.514872
O2    O     O_R   0.500010 0.319680 0.381230 -0.511990
O3    O     O_R   0.348990 0.499960 0.599490 -0.507294
O4    O     O_R   0.349000 0.500000 0.361910 -0.503494
O5    O     O_R   0.499990 0.680320 0.618770 -0.492475
O6    O     O_R   0.500000 0.680360 0.381190 -0.509251
O7    O     O_R   0.651000 0.500000 0.638090 -0.459733
O8    O     O_R   0.651010 0.500040 0.400510 -0.506308
O9    O     O_3   0.807453 0.660407 0.718699 -0.718975

loop_
_geom_bond_atom_site_label_1
_geom_bond_atom_site_label_2
_ccdc_geom_bond_type
C10   N2    A    
Cu2   O8    S    
C6    C7    S    
C16   O8    A    
C19   H2    S    
C8    N1    A    
C18   C21   A    
C17   C29   A    
C9    C10   A    
C4    O4    A    
Cu2   O6    S    
C18   C20   A    
C19   C20   A    
C34   H6    S    
C20   H4    S    
Cu1   O7    S    
C2    H7    S    
Cu2   N1    S    
C4    C18   S    
C7    H12   S    
C2    C34   A    
C33   C34   A    
C6    H1    S    
C1    C33   S    
Cu1   O1    S    
C13   H20   S    
C22   C28   A    
C13   C14   S    
C32   C33   A    
C17   C30   A    
C11   C13   S    
C12   C23   A    
C26   C27   A    
C30   C31   A    
C12   C21   A    
C26   H11   S    
C8    C11   A    
C21   H5    S    
C24   H9    S    
C23   C29   A    
C4    O3    A    
C22   C29   S    
C31   H3    S    
C7    H16   S    
C2    C3    A    
C22   C24   A    
C12   C31   A    
C5    C6    S    
C14   H22   S    
C8    C14   S    
C9    H17   S    
Cu1   O5    S    
C10   H18   S    
C11   N2    A    
C15   O5    A    
C3    C5    A    
C30   O9    S    
C3    C15   S    
C24   C25   A    
C6    H8    S    
C1    O2    A    
C27   C28   A    
C16   O7    A    
C14   H21   S    
C19   C23   A    
Cu1   N2    S    
Cu1   O3    S    
C7    C32   S    
H15   O9    S    
C9    N1    A    
C25   C26   A    
Cu2   O4    S    
C15   O6    A    
C28   H14   S    
C25   H10   S    
C5    C32   A    
C27   H13   S    
C13   H19   S    
C16   C17   S    
Cu2   O2    S    
Cu1   Cu2   S    
C1    O1    A    
