data_mof_unit_pretest_1106.cif
_audit_creation_date              2012-12-11T17:19:19-0500
_audit_creation_method            fapswitch 2.2
_symmetry_space_group_name_H-M    P1
_symmetry_Int_Tables_number       1
_space_group_crystal_system       triclinic
_cell_length_a                    14.751298
_cell_length_b                    7.247962
_cell_length_c                    13.574971
_cell_angle_alpha                 89.995639
_cell_angle_beta                  100.726457
_cell_angle_gamma                 90.000524
_cell_volume                      1426.03284553

loop_
_atom_site_label
_atom_site_type_symbol
_atom_type_description
_atom_site_fract_x
_atom_site_fract_y
_atom_site_fract_z
_atom_type_partial_charge
O1    O     O_R   0.648180 0.355050 0.151550 -0.516033
O2    O     O_R   0.351820 0.644950 0.848450 -0.516022
O3    O     O_R   0.851820 0.855050 0.348450 -0.516033
O4    O     O_R   0.148180 0.144950 0.651550 -0.516042
O5    O     O_R   0.835240 0.681980 0.154280 -0.529465
O6    O     O_R   0.164760 0.318020 0.845720 -0.529461
O7    O     O_R   0.664760 0.181980 0.345720 -0.529462
O8    O     O_R   0.335240 0.818020 0.654280 -0.529464
C1    C     C_R   0.859604 0.513130 0.128041 0.682933
C2    C     C_R   0.140393 0.486871 0.871957 0.682935
C3    C     C_R   0.640379 0.013125 0.371940 0.682966
C4    C     C_R   0.359620 0.986876 0.628058 0.682971
O9    O     O_R   0.647870 0.684600 0.139630 -0.526834
O10   O     O_R   0.352130 0.315400 0.860370 -0.526839
O11   O     O_R   0.852130 0.184600 0.360370 -0.526832
O12   O     O_R   0.147870 0.815400 0.639630 -0.526822
O13   O     O_R   0.663110 0.857440 0.333700 -0.526943
O14   O     O_R   0.336890 0.142560 0.666300 -0.526944
O15   O     O_R   0.836890 0.357440 0.166300 -0.526947
O16   O     O_R   0.163110 0.642560 0.833700 -0.526952
C5    C     C_R   0.614924 0.516029 0.113328 0.774640
C6    C     C_R   0.385078 0.483970 0.886670 0.774674
C7    C     C_R   0.885075 0.016024 0.386671 0.774620
C8    C     C_R   0.114925 0.983976 0.613329 0.774657
O17   O     O_3   0.755220 0.522230 0.313690 -0.361884
O18   O     O_3   0.244780 0.477770 0.686310 -0.361892
O19   O     O_3   0.744780 0.022230 0.186310 -0.361914
O20   O     O_3   0.255220 0.977770 0.813690 -0.361927
V1    V     V_3+5 0.749030 0.796100 0.238190 1.594005
V2    V     V_3+5 0.250970 0.203900 0.761810 1.593984
V3    V     V_3+5 0.750970 0.296100 0.261810 1.593998
V4    V     V_3+5 0.249030 0.703900 0.738190 1.593993
C9    C     C_1   0.966072 0.005377 0.466701 -0.084487
C10   C     C_1   0.033927 0.994624 0.533300 -0.084451
C11   C     C_1   0.533928 0.505384 0.033298 -0.084438
C12   C     C_1   0.466075 0.494614 0.966699 -0.084418
H1    H     H_    0.237655 0.263148 0.283641 0.142672
H2    H     H_    0.762346 0.736862 0.716362 0.142668
H3    H     H_    0.262154 0.763809 0.216286 0.142589
H4    H     H_    0.737779 0.236414 0.783684 0.142609
C13   C     C_R   0.556580 0.944751 0.711625 -0.061779
C14   C     C_R   0.443419 0.055255 0.288375 -0.061768
C15   C     C_R   0.943465 0.444594 0.788389 -0.061833
C16   C     C_R   0.056518 0.555460 0.211599 -0.061850
C17   C     C_R   0.640347 0.856631 0.749484 -0.073337
C18   C     C_R   0.359652 0.143374 0.250518 -0.073347
C19   C     C_R   0.859742 0.356322 0.750546 -0.073270
C20   C     C_R   0.140217 0.643814 0.249434 -0.073251
C21   C     C_R   0.698249 0.807585 0.685519 -0.192175
C22   C     C_R   0.301750 0.192424 0.314486 -0.192190
C23   C     C_R   0.801850 0.307227 0.814516 -0.192090
C24   C     C_R   0.198097 0.692949 0.185458 -0.192070
C25   C     C_R   0.676818 0.848384 0.583676 -0.054272
C26   C     C_R   0.323184 0.151629 0.416326 -0.054257
C27   C     C_R   0.823227 0.348186 0.916338 -0.054316
C28   C     C_R   0.176743 0.651913 0.083648 -0.054313
C29   C     C_R   0.591297 0.935649 0.540263 0.028516
C30   C     C_R   0.408704 0.064360 0.459738 0.028515
C31   C     C_R   0.908717 0.435563 0.959742 0.028469
C32   C     C_R   0.091269 0.564475 0.040248 0.028456
C33   C     C_R   0.525752 0.963590 0.605052 0.017985
C34   C     C_R   0.474250 0.036417 0.394947 0.017984
C35   C     C_R   0.974271 0.463495 0.894960 0.018032
C36   C     C_R   0.025715 0.536533 0.105031 0.018047
C37   C     C_R   0.568040 0.992145 0.436810 -0.144062
C38   C     C_R   0.431963 0.007860 0.563190 -0.144065
C39   C     C_R   0.931944 0.492164 0.063173 -0.144006
C40   C     C_R   0.068047 0.507843 0.936820 -0.144026
C41   C     C_1   0.670359 0.816899 0.854919 0.337919
N1    N     N_1   0.694876 0.783849 0.939015 -0.346947
C42   C     C_1   0.329639 0.183103 0.145084 0.337902
N2    N     N_1   0.305119 0.216151 0.060987 -0.346954
C43   C     C_1   0.829743 0.316565 0.645116 0.338017
N3    N     N_1   0.805234 0.283506 0.561023 -0.347015
C44   C     C_1   0.170216 0.683582 0.354862 0.338049
N4    N     N_1   0.194728 0.716647 0.438955 -0.347067
C45   C     C_2   0.513499 0.046652 0.785295 0.736283
O21   O     O_2   0.508404 0.214785 0.780214 -0.564484
O22   O     O_R   0.484273 0.951956 0.863479 -0.652651
H5    H     H_    0.459987 0.037237 0.911642 0.315398
C46   C     C_2   0.486501 0.953357 0.214705 0.736306
O23   O     O_2   0.491595 0.785226 0.219786 -0.564467
O24   O     O_R   0.515729 0.048057 0.136524 -0.652658
H6    H     H_    0.540019 0.962779 0.088365 0.315399
C47   C     C_2   0.986507 0.546581 0.714709 0.736290
O25   O     O_2   0.991567 0.714716 0.719795 -0.564506
O26   O     O_R   0.015742 0.451959 0.636516 -0.652650
H7    H     H_    0.039999 0.537291 0.588350 0.315394
C48   C     C_2   0.013497 0.453436 0.285284 0.736287
O27   O     O_2   0.008446 0.285302 0.280186 -0.564507
O28   O     O_R   0.984266 0.548027 0.363489 -0.652648
H8    H     H_    0.960020 0.462674 0.411651 0.315390
C49   C     C_1   0.740956 0.765021 0.530165 0.293160
N5    N     N_1   0.795312 0.689476 0.494071 -0.288190
C50   C     C_1   0.259051 0.235007 0.469839 0.293176
N6    N     N_1   0.204697 0.310564 0.505933 -0.288206
C51   C     C_1   0.759030 0.264995 0.969837 0.293198
N7    N     N_1   0.704613 0.189600 0.005909 -0.288273
C52   C     C_1   0.240979 0.734990 0.030172 0.293276
N8    N     N_1   0.295439 0.810282 0.994129 -0.288359

loop_
_geom_bond_atom_site_label_1
_geom_bond_atom_site_label_2
_ccdc_geom_bond_type
O17   V3    S    
C16   C20   A    
O26   H7    S    
O1    C5    A    
C49   N5    T    
C27   C31   A    
O19   V1    S    
O13   V1    S    
C43   N3    T    
O3    C7    A    
C50   N6    T    
C13   C33   A    
O15   V3    S    
C51   N7    T    
C15   C35   A    
H2    C21   S    
C47   O25   D    
C16   C36   A    
O7    C3    A    
C22   C26   A    
O9    V1    S    
C13   C45   S    
O4    C8    A    
O1    V3    S    
O2    V4    S    
C14   C18   A    
O3    V1    S    
C31   C39   A    
C33   C38   A    
C30   C38   A    
C52   N8    T    
C2    O16   A    
C7    C9    S    
O2    C6    A    
O14   V2    S    
C48   O28   S    
C14   C34   A    
O11   C7    A    
H3    C24   S    
O12   C8    A    
C20   C44   S    
C14   C46   S    
O10   V2    S    
C46   O24   S    
C1    O15   A    
C46   O23   D    
O5    V1    S    
C45   O22   S    
O7    V3    S    
C47   O26   S    
C17   C41   S    
O8    V4    S    
C36   C39   A    
C19   C43   S    
O28   H8    S    
C25   C29   A    
O18   V4    S    
C19   C23   A    
C45   O21   D    
C25   C49   S    
C8    C10   S    
C28   C32   A    
C11   C12   T    
C15   C47   S    
C44   N4    T    
C1    C39   S    
O5    C1    A    
O24   H6    S    
C17   C21   A    
O8    C4    A    
C27   C51   S    
C26   C30   A    
C9    C10   T    
C18   C42   S    
O9    C5    A    
O11   V3    S    
C26   C50   S    
C30   C34   A    
O6    V2    S    
O16   V4    S    
C35   C40   A    
C3    O13   A    
C34   C37   A    
C29   C37   A    
O6    C2    A    
C29   C33   A    
C5    C11   S    
C2    C40   S    
O12   V4    S    
H4    C23   S    
C6    C12   S    
C18   C22   A    
C31   C35   A    
C32   C36   A    
O10   C6    A    
O20   V2    S    
C42   N2    T    
H1    C22   S    
C4    C38   S    
C21   C25   A    
C23   C27   A    
C41   N1    T    
O22   H5    S    
C24   C28   A    
C20   C24   A    
C32   C40   A    
C4    O14   A    
C13   C17   A    
C28   C52   S    
C48   O27   D    
C15   C19   A    
O4    V2    S    
C16   C48   S    
C3    C37   S    
