data_mof_unit_pretest_1793.cif
_audit_creation_date              2012-12-10T17:23:33-0500
_audit_creation_method            fapswitch 2.2
_symmetry_space_group_name_H-M    P1
_symmetry_Int_Tables_number       1
_space_group_crystal_system       triclinic
_cell_length_a                    10.15092
_cell_length_b                    10.591077
_cell_length_c                    15.712809
_cell_angle_alpha                 90.72365
_cell_angle_beta                  81.747948
_cell_angle_gamma                 97.784905
_cell_volume                      1656.33300604

loop_
_atom_site_label
_atom_site_type_symbol
_atom_type_description
_atom_site_fract_x
_atom_site_fract_y
_atom_site_fract_z
_atom_type_partial_charge
C1    C     C_R   0.558898 0.734586 0.492513 0.884592
C2    C     C_3   0.500415 0.381509 0.971775 -0.148704
C3    C     C_3   0.611403 0.574269 0.962125 0.134601
C4    C     C_3   0.389285 0.426789 0.037757 0.133538
C5    C     C_1   0.501585 0.499068 0.750429 -0.098285
C6    C     C_1   0.498554 0.501336 0.249542 -0.100340
C7    C     C_3   0.389990 0.546198 0.981635 0.137212
C8    C     C_3   0.610704 0.454862 0.018261 0.135453
C9    C     C_3   0.501120 0.499721 0.916568 -0.050585
C10   C     C_3   0.499557 0.501311 0.083334 -0.050173
C11   C     C_1   0.501725 0.498893 0.825651 0.064635
C12   C     C_R   0.440766 0.265813 0.507912 0.865664
C13   C     C_1   0.498695 0.501850 0.174288 0.062143
C14   C     C_2   0.598378 0.871654 0.494679 -0.040649
C15   C     C_2   0.397293 0.130366 0.519424 -0.028430
C16   C     C_1   0.500113 0.749828 0.061131 0.306360
C17   C     C_1   0.500572 0.251142 0.938938 0.308345
C18   C     C_1   0.120890 0.370294 0.445580 0.315571
C19   C     C_1   0.868050 0.434218 0.613089 0.290727
C20   C     C_2   0.507168 0.947155 0.482377 0.091188
C21   C     C_2   0.487671 0.059000 0.536784 0.111084
C22   C     C_2   0.922355 0.459290 0.524100 0.006823
C23   C     C_2   0.071851 0.467529 0.502073 0.001705
C24   C     C_R   0.500565 0.499822 0.661740 0.899597
C25   C     C_R   0.499436 0.500220 0.338252 0.894470
C26   C     C_3   0.500278 0.619545 0.028130 -0.145982
I1    I     I_    0.785270 0.691480 0.898642 -0.169230
I2    I     I_    0.923814 0.499555 0.338186 -0.135624
I3    I     I_    0.215263 0.309545 0.100998 -0.179470
I4    I     I_    0.783770 0.381493 0.050580 -0.166678
I5    I     I_    0.217108 0.619843 0.949244 -0.160290
I6    I     I_    0.516401 0.058761 0.668914 -0.228135
I7    I     I_    0.385314 0.900340 0.381661 -0.225534
I8    I     I_    0.191273 0.071035 0.567712 -0.164999
I9    I     I_    0.790545 0.941318 0.529150 -0.177903
I10   I     I_    0.097411 0.695656 0.615999 -0.094972
N1    N     N_2   0.842700 0.448880 0.465440 -0.054750
N2    N     N_2   0.157300 0.551120 0.534560 -0.045688
N3    N     N_1   0.499962 0.852500 0.087159 -0.125634
N4    N     N_1   0.500704 0.148368 0.913105 -0.114171
N5    N     N_1   0.158174 0.292329 0.399467 -0.136051
N6    N     N_1   0.826730 0.413316 0.684817 -0.139079
O1    O     O_R   0.431060 0.692470 0.506960 -0.572126
O2    O     O_R   0.568940 0.307530 0.493040 -0.593546
O3    O     O_R   0.651120 0.659650 0.484770 -0.580762
O4    O     O_R   0.348880 0.340350 0.515230 -0.612335
O5    O     O_R   0.389990 0.516420 0.634310 -0.585278
O6    O     O_R   0.610010 0.483580 0.365690 -0.577728
O7    O     O_R   0.610050 0.483600 0.612130 -0.617810
O8    O     O_R   0.389950 0.516400 0.387870 -0.610871
Zn1   Zn    Zn3+2 0.353060 0.521920 0.514810 1.042728
Zn2   Zn    Zn3+2 0.646940 0.478080 0.485190 1.045378

loop_
_geom_bond_atom_site_label_1
_geom_bond_atom_site_label_2
_ccdc_geom_bond_type
O2    Zn2   S    
C2    C4    S    
C19   N6    T    
C3    C9    S    
C1    C14   S    
C23   N2    D    
C17   N4    T    
C15   I8    S    
C4    I3    S    
C12   C15   S    
C15   C21   D    
O7    Zn2   S    
C1    O3    A    
C10   C26   S    
C5    C24   S    
O8    Zn1   S    
C8    I4    S    
C12   O2    A    
C6    C13   T    
C14   I9    S    
C9    C11   S    
C25   O6    A    
O1    Zn1   S    
C7    C26   S    
I2    N1    S    
C4    C7    S    
C20   I7    S    
C24   O5    A    
C3    I1    S    
C5    C11   T    
C3    C26   S    
C16   C26   S    
C21   I6    S    
C6    C25   S    
C7    I5    S    
C16   N3    T    
C4    C10   S    
I10   N2    S    
C14   C20   D    
O6    Zn2   S    
C19   C22   S    
C22   N1    D    
C20   C21   S    
C12   O4    A    
C3    C8    S    
C18   N5    T    
C24   O7    A    
C7    C9    S    
N1    Zn2   S    
C22   C23   S    
O5    Zn1   S    
N2    Zn1   S    
O3    Zn2   S    
C25   O8    A    
C2    C9    S    
O4    Zn1   S    
C1    O1    A    
C8    C10   S    
C2    C8    S    
C18   C23   S    
C2    C17   S    
C10   C13   S    
