data_mof_unit_pretest_1616.cif
_audit_creation_date              2012-12-10T17:53:50-0500
_audit_creation_method            fapswitch 2.2
_symmetry_space_group_name_H-M    P1
_symmetry_Int_Tables_number       1
_space_group_crystal_system       triclinic
_cell_length_a                    19.654444
_cell_length_b                    19.654096
_cell_length_c                    51.452115
_cell_angle_alpha                 90.000444
_cell_angle_beta                  90.000432
_cell_angle_gamma                 90.042617
_cell_volume                      19875.4489423

loop_
_atom_site_label
_atom_site_type_symbol
_atom_type_description
_atom_site_fract_x
_atom_site_fract_y
_atom_site_fract_z
_atom_type_partial_charge
C1    C     C_R   0.608149 0.940296 0.013578 -0.157286
C2    C     C_R   0.891861 0.559726 0.486422 -0.157278
C3    C     C_R   0.629510 0.870489 0.250000 0.832234
C4    C     C_R   0.129501 0.629501 0.750000 0.824756
C5    C     C_R   0.870499 0.370499 0.250000 0.824756
C6    C     C_R   0.629510 0.870489 0.750000 0.832227
C7    C     C_R   0.370490 0.129510 0.250000 0.832227
C8    C     C_R   0.949886 0.462512 0.363058 0.037473
C9    C     C_R   0.050139 0.537446 0.636942 0.037460
C10   C     C_R   0.462529 0.949877 0.363059 0.037484
C11   C     C_R   0.537431 0.050155 0.636943 0.037478
C12   C     C_R   0.050108 0.537488 0.363060 0.037466
C13   C     C_R   0.440170 0.108079 0.513579 -0.157279
C14   C     C_R   0.949858 0.462551 0.636942 0.037463
C15   C     C_R   0.537473 0.050122 0.363059 0.037483
C16   C     C_R   0.462569 0.949850 0.636941 0.037473
C17   C     C_R   0.449896 0.962504 0.863059 0.037472
C18   C     C_R   0.550128 0.037461 0.136941 0.037456
C19   C     C_R   0.962569 0.449848 0.863058 0.037490
C20   C     C_R   0.037449 0.550141 0.136941 0.037498
C21   C     C_R   0.550103 0.037497 0.863060 0.037468
C22   C     C_R   0.449871 0.962536 0.136941 0.037457
C23   C     C_R   0.037432 0.550153 0.863058 0.037492
C24   C     C_R   0.559836 0.891922 0.486422 -0.157281
C25   C     C_R   0.962551 0.449862 0.136940 0.037496
C26   C     C_1   0.181172 0.681173 0.250001 -0.165609
C27   C     C_1   0.818828 0.318827 0.750000 -0.165579
C28   C     C_1   0.318816 0.181184 0.249999 -0.148587
C29   C     C_1   0.681184 0.818816 0.750000 -0.148587
C30   C     C_1   0.818827 0.318827 0.250000 -0.165606
C31   C     C_1   0.181173 0.681173 0.750000 -0.165581
C32   C     C_1   0.681184 0.818816 0.249999 -0.148590
C33   C     C_1   0.318816 0.181184 0.750000 -0.148591
C34   C     C_1   0.181184 0.318816 0.750000 -0.148590
C35   C     C_R   0.891862 0.559727 0.513579 -0.157275
C36   C     C_1   0.818816 0.681184 0.250000 -0.148590
C37   C     C_1   0.318827 0.818827 0.750000 -0.165594
C38   C     C_1   0.681173 0.181173 0.250000 -0.165603
C39   C     C_1   0.818816 0.681184 0.750000 -0.148587
C40   C     C_1   0.181183 0.318816 0.250000 -0.148585
C41   C     C_1   0.681172 0.181173 0.750000 -0.165594
C42   C     C_1   0.318828 0.818827 0.249999 -0.165602
C43   C     C_1   0.224578 0.724578 0.250000 0.004285
C44   C     C_1   0.775422 0.275422 0.750000 0.004288
C45   C     C_1   0.275420 0.224580 0.250000 0.004728
C46   C     C_R   0.108132 0.440262 0.486422 -0.157276
C47   C     C_1   0.724580 0.775420 0.750000 0.004728
C48   C     C_1   0.775422 0.275422 0.250000 0.004291
C49   C     C_1   0.224578 0.724578 0.750000 0.004283
C50   C     C_1   0.724580 0.775420 0.250000 0.004728
C51   C     C_1   0.275420 0.224580 0.750000 0.004728
C52   C     C_1   0.224580 0.275420 0.750000 0.004727
C53   C     C_1   0.775420 0.724580 0.250000 0.004728
C54   C     C_1   0.275422 0.775422 0.750000 0.004292
C55   C     C_1   0.724578 0.224578 0.250000 0.004288
C56   C     C_1   0.775420 0.724580 0.750000 0.004727
C57   C     C_R   0.559838 0.891923 0.513578 -0.157279
C58   C     C_1   0.224580 0.275420 0.250000 0.004729
C59   C     C_1   0.724578 0.224578 0.750000 0.004289
C60   C     C_1   0.275422 0.775421 0.250000 0.004290
C61   C     C_R   0.999998 0.500000 0.349079 -0.048848
C62   C     C_R   0.999999 0.499999 0.650921 -0.048826
C63   C     C_R   0.500001 1.000000 0.349080 -0.048837
C64   C     C_R   0.500000 0.000001 0.650921 -0.048816
C65   C     C_R   0.499999 0.000000 0.849080 -0.048863
C66   C     C_R   0.500000 0.999999 0.150921 -0.048830
C67   C     C_R   0.000001 0.500000 0.849079 -0.048813
C68   C     C_R   0.440170 0.108079 0.486422 -0.157281
C69   C     C_R   1.000000 0.500001 0.150921 -0.048830
C70   C     C_3   0.893848 0.422480 0.349655 -0.411274
C71   C     C_3   0.840371 0.469626 0.337490 -0.329641
C72   C     C_3   0.785478 0.428830 0.323423 -0.866854
C73   C     C_3   0.106207 0.577436 0.650346 -0.411328
C74   C     C_3   0.159652 0.530248 0.662507 -0.329652
C75   C     C_3   0.214571 0.571000 0.676578 -0.866868
C76   C     C_3   0.422512 0.893828 0.349655 -0.411294
C77   C     C_3   0.469673 0.840363 0.337491 -0.329656
C78   C     C_3   0.428892 0.785458 0.323425 -0.866856
C79   C     C_R   0.446875 0.029464 0.054824 0.509219
C80   C     C_3   0.577395 0.106238 0.650348 -0.411358
C81   C     C_3   0.530181 0.159666 0.662506 -0.329669
C82   C     C_3   0.570905 0.214596 0.676583 -0.866868
C83   C     C_3   0.106144 0.577526 0.349658 -0.411270
C84   C     C_3   0.159624 0.530385 0.337492 -0.329637
C85   C     C_3   0.214527 0.571189 0.323436 -0.866855
C86   C     C_3   0.893787 0.422567 0.650347 -0.411332
C87   C     C_3   0.840345 0.469762 0.662506 -0.329655
C88   C     C_3   0.785422 0.429018 0.676577 -0.866868
C89   C     C_3   0.577490 0.106171 0.349656 -0.411294
C90   C     C_R   0.553125 0.970534 0.945175 0.509226
C91   C     C_3   0.530329 0.159636 0.337492 -0.329654
C92   C     C_3   0.571110 0.214543 0.323429 -0.866862
C93   C     C_3   0.422596 0.893771 0.650346 -0.411351
C94   C     C_3   0.469799 0.840338 0.662505 -0.329666
C95   C     C_3   0.429064 0.785414 0.676579 -0.866871
C96   C     C_3   0.393862 0.922464 0.849656 -0.411267
C97   C     C_3   0.340378 0.969605 0.837493 -0.329640
C98   C     C_3   0.285501 0.928804 0.823421 -0.866852
C99   C     C_3   0.606185 0.077463 0.150346 -0.411317
C100  C     C_3   0.659637 0.030286 0.162507 -0.329651
C101  C     C_R   0.029583 0.446942 0.054825 0.509234
C102  C     C_3   0.714547 0.071050 0.176576 -0.866872
C103  C     C_3   0.922587 0.393774 0.849654 -0.411341
C104  C     C_3   0.969782 0.340335 0.837491 -0.329665
C105  C     C_3   0.929036 0.285415 0.823418 -0.866856
C106  C     C_3   0.077444 0.606205 0.150346 -0.411321
C107  C     C_3   0.030263 0.659654 0.162510 -0.329671
C108  C     C_3   0.071022 0.714569 0.176579 -0.866864
C109  C     C_3   0.606135 0.077540 0.849657 -0.411263
C110  C     C_3   0.659619 0.030403 0.837493 -0.329638
C111  C     C_3   0.714504 0.071210 0.823428 -0.866861
C112  C     C_R   0.391849 0.059698 0.986422 -0.157287
C113  C     C_R   0.970425 0.553062 0.945175 0.509231
C114  C     C_3   0.393814 0.922536 0.150345 -0.411318
C115  C     C_3   0.340361 0.969714 0.162506 -0.329649
C116  C     C_3   0.285453 0.928952 0.176576 -0.866870
C117  C     C_3   0.077402 0.606233 0.849654 -0.411350
C118  C     C_3   0.030196 0.659662 0.837492 -0.329670
C119  C     C_3   0.070928 0.714603 0.823426 -0.866861
C120  C     C_3   0.922552 0.393800 0.150343 -0.411320
C121  C     C_3   0.969730 0.340348 0.162507 -0.329668
C122  C     C_3   0.928968 0.285438 0.176577 -0.866861
C123  C     C_R   0.553123 0.970531 0.054825 0.509220
C124  C     C_R   0.446873 0.029461 0.945175 0.509225
C125  C     C_R   0.970425 0.553063 0.054825 0.509233
C126  C     C_R   0.029585 0.446941 0.945175 0.509231
C127  C     C_R   0.946881 0.529474 0.554825 0.509224
C128  C     C_R   0.053114 0.470518 0.445175 0.509228
C129  C     C_R   0.529535 0.946913 0.554825 0.509227
C130  C     C_R   0.470476 0.053091 0.445175 0.509230
C131  C     C_R   0.053113 0.470514 0.554825 0.509224
C132  C     C_R   0.940056 0.608021 0.013578 -0.157265
C133  C     C_R   0.946878 0.529471 0.445176 0.509226
C134  C     C_R   0.470475 0.053091 0.554825 0.509226
C135  C     C_R   0.529528 0.946909 0.445175 0.509230
C136  C     C_R   0.554272 0.970063 0.027480 -0.021304
C137  C     C_R   0.445726 0.029930 0.972520 -0.021309
C138  C     C_R   0.969949 0.554209 0.027480 -0.021317
C139  C     C_R   0.030061 0.445795 0.972519 -0.021316
C140  C     C_R   0.445726 0.029931 0.027480 -0.021303
C141  C     C_R   0.554273 0.970065 0.972520 -0.021309
C142  C     C_R   0.030060 0.445796 0.027480 -0.021318
C143  C     C_R   0.059953 0.391983 0.986421 -0.157264
C144  C     C_R   0.969949 0.554208 0.972519 -0.021316
C145  C     C_R   0.054261 0.470045 0.527481 -0.021301
C146  C     C_R   0.945731 0.529942 0.472520 -0.021305
C147  C     C_R   0.470004 0.054238 0.527481 -0.021314
C148  C     C_R   0.530001 0.945763 0.472519 -0.021320
C149  C     C_R   0.945732 0.529943 0.527481 -0.021301
C150  C     C_R   0.054262 0.470046 0.472520 -0.021306
C151  C     C_R   0.530004 0.945765 0.527481 -0.021315
C152  C     C_R   0.470004 0.054238 0.472520 -0.021320
C153  C     C_R   0.499999 0.999997 0.013757 -0.017974
C154  C     C_R   0.391849 0.059699 0.013578 -0.157285
C155  C     C_R   0.499999 0.999997 0.986243 -0.017974
C156  C     C_R   0.000005 0.500002 0.013756 -0.017985
C157  C     C_R   0.000005 0.500002 0.986243 -0.017986
C158  C     C_R   0.999997 0.499994 0.513757 -0.017983
C159  C     C_R   0.999996 0.499994 0.486244 -0.017983
C160  C     C_R   0.500004 0.000001 0.513757 -0.017969
C161  C     C_R   0.500003 0.000001 0.486243 -0.017969
C162  C     C_R   0.950964 0.462991 0.390357 -0.137183
C163  C     C_R   0.049060 0.536966 0.609644 -0.137163
C164  C     C_R   0.463010 0.950954 0.390357 -0.137193
C165  C     C_R   0.608150 0.940297 0.986422 -0.157285
C166  C     C_R   0.536955 0.049077 0.609645 -0.137168
C167  C     C_R   0.049029 0.537005 0.390358 -0.137185
C168  C     C_R   0.950937 0.463026 0.609644 -0.137162
C169  C     C_R   0.536992 0.049045 0.390358 -0.137194
C170  C     C_R   0.463050 0.950927 0.609643 -0.137171
C171  C     C_R   0.450974 0.962983 0.890357 -0.137180
C172  C     C_R   0.549050 0.036982 0.109643 -0.137161
C173  C     C_R   0.963053 0.450924 0.890357 -0.137188
C174  C     C_R   0.036968 0.549067 0.109643 -0.137196
C175  C     C_R   0.549025 0.037016 0.890358 -0.137182
C176  C     C_R   0.059953 0.391983 0.013578 -0.157264
C177  C     C_R   0.450950 0.963014 0.109643 -0.137161
C178  C     C_R   0.036953 0.549077 0.890357 -0.137189
C179  C     C_R   0.963036 0.450937 0.109642 -0.137197
C180  C     C_R   0.999997 0.499997 0.404020 0.261199
C181  C     C_R   0.999998 0.499995 0.595981 0.261149
C182  C     C_R   0.500001 1.000000 0.404020 0.261234
C183  C     C_R   0.500004 0.000001 0.595981 0.261182
C184  C     C_R   0.499999 0.999999 0.904021 0.261193
C185  C     C_R   0.500000 0.999998 0.095980 0.261151
C186  C     C_R   0.000004 0.500000 0.904020 0.261250
C187  C     C_R   0.940056 0.608021 0.986421 -0.157264
C188  C     C_R   0.000002 0.500002 0.095979 0.261271
C189  C     C_R   1.000000 0.500000 0.179736 0.789864
C190  C     C_R   0.000000 0.499999 0.820264 0.789869
C191  C     C_R   0.500000 1.000000 0.179736 0.789870
C192  C     C_R   0.500000 0.000000 0.820264 0.789865
C193  C     C_R   0.500000 0.000000 0.679736 0.789878
C194  C     C_R   0.500000 1.000000 0.320264 0.789851
C195  C     C_R   1.000000 0.500000 0.679736 0.789885
C196  C     C_R   1.000000 0.500000 0.320264 0.789861
C197  C     C_R   0.870490 0.629511 0.250000 0.832233
C198  C     C_R   0.108132 0.440261 0.513578 -0.157275
C199  C     C_R   0.129510 0.370489 0.750000 0.832234
C200  C     C_R   0.370499 0.870499 0.250000 0.824757
C201  C     C_R   0.629501 0.129501 0.750000 0.824747
C202  C     C_R   0.129510 0.370489 0.250000 0.832224
C203  C     C_R   0.870490 0.629510 0.750000 0.832227
C204  C     C_R   0.629501 0.129501 0.250000 0.824760
C205  C     C_R   0.370499 0.870499 0.750000 0.824742
C206  C     C_R   0.870499 0.370499 0.750000 0.824742
C207  C     C_R   0.129501 0.629501 0.250000 0.824771
C208  C     C_R   0.370490 0.129511 0.750000 0.832236
H1    H     H_    0.650517 0.916891 0.023628 0.192539
H2    H     H_    0.849496 0.583142 0.476373 0.192532
H3    H     H_    0.683850 0.999256 0.146991 0.238523
H4    H     H_    0.632454 0.111124 0.136142 0.198320
H5    H     H_    0.584268 0.112063 0.165162 0.232628
H6    H     H_    0.894433 0.259010 0.837197 0.264162
H7    H     H_    0.898574 0.308301 0.807471 0.260812
H8    H     H_    0.964359 0.247387 0.814912 0.250839
H9    H     H_    0.004993 0.364275 0.823324 0.212836
H10   H     H_    0.000814 0.316125 0.853008 0.238506
H11   H     H_    0.888936 0.367490 0.863858 0.198319
H12   H     H_    0.887979 0.415676 0.834838 0.232617
H13   H     H_    0.416713 0.150420 0.523628 0.192538
H14   H     H_    0.101489 0.691681 0.192524 0.260827
H15   H     H_    0.105620 0.740969 0.162798 0.264162
H16   H     H_    0.035708 0.752603 0.185087 0.250837
H17   H     H_    0.999229 0.683865 0.146994 0.238504
H18   H     H_    0.995053 0.635722 0.176679 0.212830
H19   H     H_    0.112049 0.584295 0.165162 0.232624
H20   H     H_    0.111101 0.632483 0.136142 0.198319
H21   H     H_    0.691595 0.101670 0.807485 0.260860
H22   H     H_    0.740876 0.105822 0.837213 0.264155
H23   H     H_    0.752565 0.035928 0.814918 0.250829
H24   H     H_    0.583292 0.849581 0.476372 0.192538
H25   H     H_    0.683851 0.999380 0.853007 0.238504
H26   H     H_    0.635715 0.995181 0.823319 0.212802
H27   H     H_    0.584197 0.112134 0.834844 0.232643
H28   H     H_    0.632385 0.111212 0.863863 0.198304
H29   H     H_    0.259059 0.894347 0.162794 0.264166
H30   H     H_    0.308345 0.898489 0.192521 0.260831
H31   H     H_    0.247415 0.964263 0.185082 0.250839
H32   H     H_    0.364289 0.004932 0.176676 0.212821
H33   H     H_    0.316149 0.000743 0.146989 0.238522
H34   H     H_    0.367544 0.888875 0.136142 0.198320
H35   H     H_    0.849498 0.583144 0.523627 0.192532
H36   H     H_    0.415730 0.887936 0.165162 0.232628
H37   H     H_    0.105498 0.741028 0.837213 0.264161
H38   H     H_    0.101425 0.691734 0.807485 0.260815
H39   H     H_    0.035594 0.752611 0.814914 0.250845
H40   H     H_    0.995000 0.635715 0.823320 0.212835
H41   H     H_    0.999147 0.683852 0.853008 0.238516
H42   H     H_    0.111051 0.632524 0.863857 0.198334
H43   H     H_    0.112013 0.584337 0.834836 0.232604
H44   H     H_    0.898506 0.308330 0.192522 0.260829
H45   H     H_    0.894363 0.259042 0.162796 0.264160
H46   H     H_    0.150496 0.416846 0.476373 0.192531
H47   H     H_    0.964279 0.247401 0.185084 0.250838
H48   H     H_    0.000760 0.316132 0.146990 0.238501
H49   H     H_    0.004945 0.364278 0.176676 0.212831
H50   H     H_    0.887947 0.415712 0.165159 0.232625
H51   H     H_    0.888895 0.367524 0.136139 0.198315
H52   H     H_    0.583296 0.849583 0.523627 0.192538
H53   H     H_    0.416714 0.150420 0.476373 0.192538
H54   H     H_    0.913177 0.434679 0.401239 0.147329
H55   H     H_    0.086868 0.565249 0.598761 0.147363
H56   H     H_    0.434712 0.913158 0.401240 0.147300
H57   H     H_    0.349480 0.083102 0.976372 0.192538
H58   H     H_    0.565224 0.086896 0.598763 0.147337
H59   H     H_    0.086815 0.565316 0.401242 0.147329
H60   H     H_    0.913128 0.434743 0.598762 0.147364
H61   H     H_    0.565291 0.086841 0.401241 0.147300
H62   H     H_    0.434781 0.913108 0.598760 0.147335
H63   H     H_    0.413193 0.934663 0.901240 0.147329
H64   H     H_    0.586850 0.065277 0.098761 0.147358
H65   H     H_    0.934786 0.413104 0.901240 0.147293
H66   H     H_    0.065247 0.586878 0.098760 0.147281
H67   H     H_    0.586805 0.065335 0.901241 0.147329
H68   H     H_    0.916555 0.650341 0.023627 0.192524
H69   H     H_    0.413149 0.934719 0.098760 0.147359
H70   H     H_    0.065220 0.586898 0.901239 0.147296
H71   H     H_    0.934757 0.413127 0.098758 0.147279
H72   H     H_    0.808383 0.398370 0.307480 0.260851
H73   H     H_    0.759101 0.394220 0.337207 0.264154
H74   H     H_    0.747424 0.464119 0.314914 0.250830
H75   H     H_    0.816143 0.500651 0.353005 0.238504
H76   H     H_    0.864280 0.504847 0.323318 0.212808
H77   H     H_    0.915779 0.387883 0.334840 0.232639
H78   H     H_    0.867591 0.388810 0.363859 0.198305
H79   H     H_    0.083455 0.349663 0.976373 0.192524
H80   H     H_    0.240972 0.605599 0.662796 0.264164
H81   H     H_    0.191686 0.601467 0.692523 0.260823
H82   H     H_    0.252602 0.535680 0.685084 0.250839
H83   H     H_    0.135718 0.495036 0.676676 0.212828
H84   H     H_    0.183860 0.499215 0.646990 0.238521
H85   H     H_    0.132484 0.611092 0.636143 0.198322
H86   H     H_    0.084301 0.612041 0.665163 0.232619
H87   H     H_    0.394292 0.759070 0.337209 0.264158
H88   H     H_    0.398423 0.808354 0.307482 0.260841
H89   H     H_    0.464191 0.747414 0.314915 0.250834
H90   H     H_    0.349481 0.083104 0.023627 0.192539
H91   H     H_    0.504887 0.864282 0.323319 0.212815
H92   H     H_    0.500704 0.816144 0.353006 0.238505
H93   H     H_    0.388849 0.867563 0.363860 0.198312
H94   H     H_    0.387912 0.915751 0.334840 0.232632
H95   H     H_    0.601362 0.191718 0.692532 0.260802
H96   H     H_    0.605509 0.241008 0.662807 0.264174
H97   H     H_    0.535567 0.252616 0.685086 0.250842
H98   H     H_    0.499152 0.183867 0.646987 0.238525
H99   H     H_    0.494967 0.135718 0.676671 0.212841
H100  H     H_    0.612001 0.084345 0.665168 0.232616
H101  H     H_    0.650518 0.916893 0.976373 0.192539
H102  H     H_    0.611047 0.132527 0.636147 0.198327
H103  H     H_    0.191633 0.601670 0.307496 0.260857
H104  H     H_    0.240904 0.605781 0.337227 0.264152
H105  H     H_    0.252580 0.535904 0.314924 0.250832
H106  H     H_    0.183841 0.499345 0.353005 0.238507
H107  H     H_    0.135718 0.495179 0.323314 0.212800
H108  H     H_    0.084211 0.612124 0.334845 0.232629
H109  H     H_    0.132398 0.611194 0.363864 0.198313
H110  H     H_    0.759016 0.394420 0.662796 0.264167
H111  H     H_    0.808302 0.398551 0.692523 0.260819
H112  H     H_    0.083454 0.349663 0.023627 0.192524
H113  H     H_    0.747395 0.464343 0.685083 0.250838
H114  H     H_    0.864282 0.504974 0.676675 0.212829
H115  H     H_    0.816141 0.500795 0.646989 0.238526
H116  H     H_    0.867507 0.388910 0.636144 0.198326
H117  H     H_    0.915690 0.387963 0.665165 0.232617
H118  H     H_    0.605708 0.240930 0.337215 0.264159
H119  H     H_    0.601582 0.191651 0.307486 0.260843
H120  H     H_    0.535811 0.252588 0.314919 0.250837
H121  H     H_    0.495119 0.135718 0.323319 0.212814
H122  H     H_    0.499295 0.183851 0.353007 0.238507
H123  H     H_    0.916555 0.650340 0.976373 0.192524
H124  H     H_    0.611154 0.132436 0.363861 0.198314
H125  H     H_    0.612090 0.084248 0.334841 0.232629
H126  H     H_    0.398602 0.808295 0.692526 0.260812
H127  H     H_    0.394462 0.759005 0.662800 0.264169
H128  H     H_    0.464394 0.747389 0.685083 0.250844
H129  H     H_    0.500831 0.816134 0.646987 0.238520
H130  H     H_    0.505012 0.864282 0.676672 0.212839
H131  H     H_    0.387988 0.915669 0.665164 0.232615
H132  H     H_    0.388944 0.867486 0.636142 0.198326
H133  H     H_    0.308417 0.898362 0.807475 0.260851
H134  H     H_    0.150496 0.416844 0.523627 0.192532
H135  H     H_    0.259131 0.894176 0.837200 0.264156
H136  H     H_    0.247438 0.964089 0.814914 0.250829
H137  H     H_    0.316139 0.000615 0.853009 0.238504
H138  H     H_    0.364284 0.004840 0.823325 0.212808
H139  H     H_    0.415798 0.887872 0.834841 0.232649
H140  H     H_    0.367612 0.888790 0.863860 0.198298
H141  H     H_    0.740940 0.105653 0.162795 0.264166
H142  H     H_    0.691655 0.101515 0.192521 0.260833
H143  H     H_    0.752584 0.035739 0.185084 0.250840
H144  H     H_    0.635710 0.995070 0.176677 0.212821
N1    N     N_R   0.499999 0.999997 0.067947 -0.346334
N2    N     N_R   0.499999 0.999998 0.932054 -0.346342
N3    N     N_R   0.000004 0.500002 0.067946 -0.346353
N4    N     N_R   0.000005 0.500001 0.932053 -0.346348
N5    N     N_R   0.999998 0.499994 0.567947 -0.346332
N6    N     N_R   0.999996 0.499995 0.432054 -0.346341
N7    N     N_R   0.500005 0.000002 0.567947 -0.346339
N8    N     N_R   0.500001 1.000000 0.432053 -0.346348
O1    O     O_3   1.000000 0.500000 0.250000 -0.465846
O2    O     O_R   0.055830 0.500000 0.807680 -0.645250
O3    O     O_R   0.500000 0.944170 0.192320 -0.645256
O4    O     O_R   0.500000 0.055830 0.807680 -0.645253
O5    O     O_R   0.555830 0.000000 0.692320 -0.645252
O6    O     O_R   0.444170 0.000000 0.307680 -0.645248
O7    O     O_R   1.000000 0.555830 0.692320 -0.645255
O8    O     O_R   1.000000 0.444170 0.307680 -0.645250
O9    O     O_R   0.444170 0.000000 0.692320 -0.645256
O10   O     O_R   0.555830 0.000000 0.307680 -0.645251
O11   O     O_R   1.000000 0.444170 0.692320 -0.645256
O12   O     O_3   1.000000 0.500000 0.750000 -0.465849
O13   O     O_R   0.000000 0.555830 0.307680 -0.645255
O14   O     O_R   0.865940 0.578550 0.235150 -0.633314
O15   O     O_R   0.134060 0.421450 0.764850 -0.633314
O16   O     O_R   0.421450 0.865940 0.235150 -0.634548
O17   O     O_R   0.578550 0.134060 0.764850 -0.634559
O18   O     O_R   0.134060 0.421450 0.235150 -0.633313
O19   O     O_R   0.865940 0.578550 0.764850 -0.633314
O20   O     O_R   0.578550 0.134060 0.235150 -0.634546
O21   O     O_R   0.421450 0.865940 0.764850 -0.634558
O22   O     O_R   0.865940 0.421450 0.764850 -0.634540
O23   O     O_3   0.500000 1.000000 0.250000 -0.465844
O24   O     O_R   0.134060 0.578550 0.235150 -0.634539
O25   O     O_R   0.421450 0.134060 0.764850 -0.633317
O26   O     O_R   0.578550 0.865940 0.235150 -0.633318
O27   O     O_R   0.134060 0.578550 0.764850 -0.634540
O28   O     O_R   0.865940 0.421450 0.235150 -0.634540
O29   O     O_R   0.578550 0.865940 0.764850 -0.633317
O30   O     O_R   0.421450 0.134060 0.235150 -0.633318
O31   O     O_R   0.365940 0.078550 0.735150 -0.633315
O32   O     O_R   0.634060 0.921450 0.264850 -0.633315
O33   O     O_R   0.921450 0.365940 0.735150 -0.634548
O34   O     O_3   0.500000 1.000000 0.750000 -0.465844
O35   O     O_R   0.078550 0.634060 0.264850 -0.634554
O36   O     O_R   0.634060 0.921450 0.735150 -0.633314
O37   O     O_R   0.365940 0.078550 0.264850 -0.633314
O38   O     O_R   0.078550 0.634060 0.735150 -0.634548
O39   O     O_R   0.921450 0.365940 0.264850 -0.634552
O40   O     O_R   0.365940 0.921450 0.264850 -0.634546
O41   O     O_R   0.634060 0.078550 0.735150 -0.634534
O42   O     O_R   0.921450 0.634060 0.264850 -0.633319
O43   O     O_R   0.078550 0.365940 0.735150 -0.633318
O44   O     O_R   0.634060 0.078550 0.264850 -0.634547
O45   O     O_R   0.055830 0.500000 0.192320 -0.645247
O46   O     O_R   0.365940 0.921450 0.735150 -0.634535
O47   O     O_R   0.078550 0.365940 0.264850 -0.633318
O48   O     O_R   0.921450 0.634060 0.735150 -0.633318
O49   O     O_2   0.395588 0.058741 0.068185 -0.560152
O50   O     O_2   0.604415 0.941264 0.931815 -0.560140
O51   O     O_2   0.058959 0.395716 0.068187 -0.560107
O52   O     O_2   0.941047 0.604287 0.931813 -0.560115
O53   O     O_2   0.604410 0.941254 0.068185 -0.560152
O54   O     O_2   0.395584 0.058732 0.931815 -0.560141
O55   O     O_2   0.941049 0.604289 0.068187 -0.560107
O56   O     O_R   0.944170 0.500000 0.807680 -0.645251
O57   O     O_2   0.058963 0.395715 0.931813 -0.560113
O58   O     O_2   0.895603 0.558763 0.568186 -0.560156
O59   O     O_2   0.104396 0.441236 0.431814 -0.560137
O60   O     O_2   0.558870 0.895660 0.568186 -0.560137
O61   O     O_2   0.441147 0.104347 0.431814 -0.560120
O62   O     O_2   0.104393 0.441226 0.568186 -0.560154
O63   O     O_2   0.895596 0.558754 0.431815 -0.560139
O64   O     O_2   0.441140 0.104344 0.568186 -0.560139
O65   O     O_2   0.558856 0.895653 0.431814 -0.560121
O66   O     O_R   0.500000 0.055830 0.192320 -0.645255
O67   O     O_R   0.500000 0.944170 0.807680 -0.645251
O68   O     O_R   0.944170 0.500000 0.192320 -0.645250
Zn1   Zn    Zn3+2 1.000000 0.579740 0.272110 0.973761
Zn2   Zn    Zn3+2 0.500000 0.920260 0.227890 0.973770
Zn3   Zn    Zn3+2 0.920260 0.500000 0.772110 0.973775
Zn4   Zn    Zn3+2 0.079740 0.500000 0.227890 0.973776
Zn5   Zn    Zn3+2 0.500000 0.920260 0.772110 0.973761
Zn6   Zn    Zn3+2 0.500000 0.079740 0.227890 0.973769
Zn7   Zn    Zn3+2 0.079740 0.500000 0.772110 0.973779
Zn8   Zn    Zn3+2 0.920260 0.500000 0.227890 0.973776
Zn9   Zn    Zn3+2 1.000000 0.420260 0.727890 0.973773
Zn10  Zn    Zn3+2 0.420260 0.000000 0.272110 0.973767
Zn11  Zn    Zn3+2 0.579740 0.000000 0.727890 0.973781
Zn12  Zn    Zn3+2 1.000000 0.420260 0.272110 0.973761
Zn13  Zn    Zn3+2 0.000000 0.579740 0.727890 0.973771
Zn14  Zn    Zn3+2 0.579740 0.000000 0.272110 0.973768
Zn15  Zn    Zn3+2 0.420260 0.000000 0.727890 0.973780
Zn16  Zn    Zn3+2 0.500000 0.079740 0.772110 0.973762

loop_
_geom_bond_atom_site_label_1
_geom_bond_atom_site_label_2
_ccdc_geom_bond_type
C33   C208  S    
C105  H7    S    
C79   O49   S    
C10   C63   A    
C199  O15   A    
C75   H81   S    
C76   H94   S    
C114  C115  S    
C87   H115  S    
C197  O42   A    
C9    C73   S    
C190  O2    A    
C71   H76   S    
C119  H38   S    
C108  H16   S    
C134  O64   S    
C46   C198  A    
C106  C107  S    
C132  H68   S    
O42   Zn1   S    
C7    O37   A    
C97   H138  S    
C36   C53   T    
C92   H120  S    
C78   H89   S    
C38   C55   T    
C201  O41   A    
C75   H80   S    
C170  H62   S    
C88   H111  S    
C125  O55   S    
C1    C136  A    
O20   Zn6   S    
C129  O60   S    
O5    Zn11  S    
C167  C180  A    
C38   C204  S    
C12   C167  A    
C168  H60   S    
C104  C105  S    
O11   Zn9   S    
C98   H133  S    
C20   C106  S    
C28   C45   T    
O40   Zn10  S    
C202  O47   A    
O24   Zn4   S    
C50   C53   S    
C40   C58   T    
C150  C159  A    
C51   C52   S    
C124  C137  A    
C36   C197  S    
O46   Zn15  S    
C128  N6    A    
C179  C188  A    
C99   H5    S    
C83   H109  S    
C7    C28   S    
C124  N2    A    
C80   H102  S    
C3    O26   A    
C178  H70   S    
C39   C56   T    
C165  H101  S    
O12   Zn9   S    
C131  N5    A    
C166  H58   S    
C17   C96   S    
O34   Zn11  S    
C61   C196  S    
C102  H142  S    
C82   H97   S    
C128  C150  A    
C40   C202  S    
C6    O29   A    
C133  O63   S    
C130  C152  A    
C158  C159  A    
C25   C69   A    
O1    Zn8   S    
C69   C189  S    
O2    Zn7   S    
C95   H128  S    
C186  N4    S    
C94   H129  S    
O27   Zn7   S    
O48   Zn13  S    
C207  O35   A    
C117  H42   S    
C125  C138  A    
C90   O50   S    
C113  C144  A    
O45   Zn4   S    
C185  N1    S    
C200  O16   A    
C93   H132  S    
C8    C162  A    
C194  O6    A    
C136  C153  A    
O29   Zn5   S    
C78   H87   S    
C174  H66   S    
C164  H56   S    
C201  O17   A    
C74   H83   S    
C175  H67   S    
C104  H9    S    
C90   C141  A    
C122  H44   S    
C178  C186  A    
C127  N5    A    
C139  C157  A    
C7    O30   A    
C168  C181  A    
C106  H19   S    
C142  C156  A    
C109  C110  S    
O44   Zn14  S    
C88   H113  S    
C128  O59   S    
C114  H36   S    
C107  H18   S    
C35   H35   S    
C145  C158  A    
C163  C181  A    
C111  H23   S    
C122  H45   S    
C97   C98   S    
O47   Zn12  S    
O8    Zn12  S    
O66   Zn6   S    
C30   C48   T    
C44   C59   S    
C115  C116  S    
C14   C62   A    
O23   Zn14  S    
C137  C155  A    
O37   Zn10  S    
C23   C67   A    
C119  H39   S    
C110  C111  S    
C139  C143  A    
C27   C44   T    
C20   C174  A    
C24   C57   A    
C21   C175  A    
O1    Zn4   S    
C107  C108  S    
C89   C91   S    
C149  C158  A    
C162  C180  A    
C152  C161  A    
C110  H25   S    
C103  H12   S    
C77   H91   S    
C189  O68   A    
C112  C154  A    
C66   C191  S    
C88   H110  S    
C180  N6    S    
C91   H121  S    
C22   C177  A    
C147  C160  A    
C182  N8    S    
C82   H96   S    
C85   H104  S    
C135  O65   S    
C6    O36   A    
C169  C182  A    
C126  C139  A    
O7    Zn13  S    
C100  H144  S    
C1    H1    S    
C197  O14   A    
C14   C86   S    
C196  O8    A    
C91   C92   S    
C200  O40   A    
C98   H136  S    
C116  H29   S    
C181  N5    S    
C73   H86   S    
C72   H72   S    
C15   C89   S    
C101  C142  A    
C129  N7    A    
C83   C84   S    
C172  C185  A    
C70   H77   S    
C63   C194  S    
O6    Zn10  S    
C109  H27   S    
C114  H34   S    
C192  O4    A    
O21   Zn5   S    
C111  H21   S    
C173  H65   S    
O35   Zn1   S    
C18   C99   S    
C13   C147  A    
C204  O20   A    
C120  C121  S    
C81   H99   S    
C5    C30   S    
C105  H6    S    
O32   Zn14  S    
C84   H106  S    
C113  O52   S    
O4    Zn16  S    
C131  O62   S    
C13   H13   S    
C23   C117  S    
C21   C109  S    
C18   C66   A    
C194  O10   A    
O12   Zn13  S    
C100  H3    S    
C8    C70   S    
C71   H75   S    
O39   Zn12  S    
O34   Zn15  S    
C119  H37   S    
C145  C198  A    
C117  C118  S    
C127  C149  A    
O68   Zn8   S    
C208  O31   A    
C193  O9    A    
O18   Zn4   S    
C57   C151  A    
C131  C145  A    
C4    O27   A    
O1    Zn12  S    
C97   H137  S    
C206  O22   A    
C22   C114  S    
C154  H90   S    
C101  O51   S    
C133  N6    A    
C72   H73   S    
C86   H116  S    
C144  C157  A    
C112  H57   S    
C126  N4    A    
C121  H49   S    
C47   C56   S    
C13   C68   A    
C2    C35   A    
C48   C55   S    
C87   C88   S    
C143  H79   S    
C39   C203  S    
C96   H139  S    
C73   C74   S    
C26   C207  S    
C172  H64   S    
C95   H126  S    
C67   C190  S    
C83   H108  S    
C77   C78   S    
O26   Zn2   S    
C134  C147  A    
C116  H31   S    
C62   C195  S    
C129  C151  A    
C85   H105  S    
O33   Zn9   S    
C162  H54   S    
C132  C138  A    
C177  C185  A    
C9    C163  A    
C191  O66   A    
C207  O24   A    
C19   C67   A    
C70   C71   S    
C153  C155  A    
C140  C153  A    
C188  N3    S    
O43   Zn9   S    
C79   C140  A    
C105  H8    S    
O1    Zn1   S    
C130  O61   S    
O15   Zn7   S    
C143  C176  A    
C31   C49   T    
C75   H82   S    
C80   H100  S    
C132  C187  A    
O31   Zn15  S    
C76   H93   S    
C94   H130  S    
C190  O56   A    
C45   C58   S    
C176  H112  S    
O36   Zn11  S    
C183  N7    S    
C171  C184  A    
C37   C205  S    
C84   C85   S    
C108  H15   S    
C86   C87   S    
C141  C155  A    
C142  C176  A    
C208  O25   A    
C90   N2    A    
C12   C83   S    
C205  O46   A    
C93   H131  S    
C19   C173  A    
C96   C97   S    
C68   C152  A    
C92   H119  S    
C78   H88   S    
C199  O43   A    
C74   H84   S    
C104  H10   S    
C121  C122  S    
C29   C47   T    
C18   C172  A    
C4    O38   A    
O56   Zn3   S    
C106  H20   S    
C5    O39   A    
C41   C201  S    
C25   C120  S    
C122  H47   S    
C204  O44   A    
C3    O32   A    
O13   Zn1   S    
O38   Zn13  S    
C113  N4    A    
C57   H52   S    
O12   Zn3   S    
C21   C65   A    
O23   Zn6   S    
C189  O45   A    
C112  C137  A    
C166  C183  A    
C24   H24   S    
C118  H41   S    
C124  O54   S    
O19   Zn3   S    
C25   C179  A    
O3    Zn2   S    
C33   C51   T    
C120  H51   S    
O41   Zn11  S    
C34   C52   T    
C27   C206  S    
C141  C165  A    
C134  N7    A    
C151  C160  A    
C12   C61   A    
C193  O5    A    
C195  O7    A    
C202  O18   A    
C3    C32   S    
C4    C31   S    
C164  C182  A    
C11   C80   S    
C191  O3    A    
C198  H134  S    
C16   C170  A    
C71   C72   S    
C6    C29   S    
C103  C104  S    
O67   Zn5   S    
C133  C146  A    
C35   C149  A    
C46   H46   S    
C110  H26   S    
C87   H114  S    
C103  H11   S    
C175  C184  A    
O14   Zn8   S    
C169  H61   S    
C93   C94   S    
C116  H30   S    
C170  C183  A    
C171  H63   S    
C101  N3    A    
C89   H124  S    
C81   C82   S    
C117  H43   S    
C85   H103  S    
C16   C93   S    
C123  N1    A    
C148  C161  A    
C156  C157  A    
C102  H143  S    
C127  O58   S    
C95   H127  S    
C115  H32   S    
C49   C54   S    
O9    Zn15  S    
C107  H17   S    
C15   C169  A    
C73   H85   S    
C118  C119  S    
C22   C66   A    
C23   C178  A    
C174  C188  A    
C19   C103  S    
C34   C199  S    
C79   N1    A    
C84   H107  S    
C11   C166  A    
C177  H69   S    
C8    C61   A    
O23   Zn2   S    
C179  H71   S    
C125  N3    A    
C10   C76   S    
C203  O19   A    
C68   H53   S    
C81   H98   S    
C167  H59   S    
C99   H4    S    
C115  H33   S    
C173  C186  A    
C2    H2    S    
C74   C75   S    
C9    C62   A    
C206  O33   A    
C76   C77   S    
C41   C59   T    
C11   C64   A    
C24   C148  A    
C42   C60   T    
C195  O11   A    
C146  C159  A    
C70   H78   S    
C89   H125  S    
O34   Zn16  S    
C108  H14   S    
C99   C100  S    
C65   C192  S    
C1    C165  A    
C64   C193  S    
C192  O67   A    
C100  C102  S    
C94   C95   S    
O30   Zn6   S    
C32   C50   T    
C43   C60   S    
O28   Zn8   S    
C77   H92   S    
C92   H118  S    
C37   C54   T    
O16   Zn2   S    
C26   C43   T    
C46   C150  A    
C20   C69   A    
O25   Zn16  S    
C91   H122  S    
C72   H74   S    
C86   H117  S    
C82   H95   S    
C121  H48   S    
C138  C156  A    
C111  H22   S    
C10   C164  A    
C96   H140  S    
C5    O28   A    
C102  H141  S    
C80   C81   S    
C98   H135  S    
C17   C171  A    
C184  N2    S    
C196  O13   A    
C2    C146  A    
C126  O57   S    
C16   C64   A    
C203  O48   A    
C118  H40   S    
C17   C65   A    
O10   Zn14  S    
C130  N8    A    
C123  C136  A    
C160  C161  A    
C42   C200  S    
O17   Zn16  S    
C120  H50   S    
C135  N8    A    
C109  H28   S    
C187  H123  S    
C205  O21   A    
C135  C148  A    
O12   Zn7   S    
C163  H55   S    
O23   Zn10  S    
C15   C63   A    
C123  O53   S    
O34   Zn5   S    
C14   C168  A    
C144  C187  A    
O22   Zn3   S    
C140  C154  A    
