data_mof_unit_pretest_1958.cif
_audit_creation_date              2013-03-05T16:32:08-0500
_audit_creation_method            fapswitch 2.2
_symmetry_space_group_name_H-M    P1
_symmetry_Int_Tables_number       1
_space_group_crystal_system       triclinic
_cell_length_a                    22.516909
_cell_length_b                    36.13496
_cell_length_c                    22.530159
_cell_angle_alpha                 90.022108
_cell_angle_beta                  89.996039
_cell_angle_gamma                 89.980599
_cell_volume                      18331.6074745

loop_
_atom_site_label
_atom_site_type_symbol
_atom_site_description
_atom_site_fract_x
_atom_site_fract_y
_atom_site_fract_z
_atom_type_partial_charge
Zn1   Zn    Zn3+2 0.549450 0.719300 0.799470 1.004741
Zn2   Zn    Zn3+2 0.549450 0.719300 0.200530 1.005566
Zn3   Zn    Zn3+2 0.549450 0.280700 0.200530 0.985985
Zn4   Zn    Zn3+2 0.549450 0.280700 0.799470 0.985244
Zn5   Zn    Zn3+2 0.549450 0.219300 0.299470 1.006220
Zn6   Zn    Zn3+2 0.549450 0.219300 0.700530 1.007013
Zn7   Zn    Zn3+2 0.549450 0.780700 0.700530 0.987415
Zn8   Zn    Zn3+2 0.549450 0.780700 0.299470 0.986625
Zn9   Zn    Zn3+2 0.049450 0.719300 0.299470 1.006594
Zn10  Zn    Zn3+2 0.049450 0.719300 0.700530 1.008641
Zn11  Zn    Zn3+2 0.049450 0.280700 0.700530 0.994405
Zn12  Zn    Zn3+2 0.049450 0.280700 0.299470 0.991223
Zn13  Zn    Zn3+2 0.049450 0.219300 0.799470 1.001135
Zn14  Zn    Zn3+2 0.049450 0.219300 0.200530 1.006521
Zn15  Zn    Zn3+2 0.049450 0.780700 0.200530 0.996670
Zn16  Zn    Zn3+2 0.049450 0.780700 0.799470 0.997041
Zn17  Zn    Zn3+2 0.450550 0.780720 0.799450 0.992554
Zn18  Zn    Zn3+2 0.450550 0.780720 0.200550 0.990319
Zn19  Zn    Zn3+2 0.450550 0.219280 0.200550 0.989318
Zn20  Zn    Zn3+2 0.450550 0.219280 0.799450 0.990674
Zn21  Zn    Zn3+2 0.450550 0.280720 0.299450 0.980616
Zn22  Zn    Zn3+2 0.450550 0.280720 0.700550 0.981605
Zn23  Zn    Zn3+2 0.450550 0.719280 0.700550 0.981090
Zn24  Zn    Zn3+2 0.450550 0.719280 0.299450 0.980174
Zn25  Zn    Zn3+2 0.950550 0.780720 0.299450 0.972103
Zn26  Zn    Zn3+2 0.950550 0.780720 0.700550 0.977162
Zn27  Zn    Zn3+2 0.950550 0.219280 0.700550 0.980280
Zn28  Zn    Zn3+2 0.950550 0.219280 0.299450 0.975177
Zn29  Zn    Zn3+2 0.950550 0.280720 0.799450 0.975300
Zn30  Zn    Zn3+2 0.950550 0.280720 0.200550 0.976090
Zn31  Zn    Zn3+2 0.950550 0.719280 0.200550 0.976789
Zn32  Zn    Zn3+2 0.950550 0.719280 0.799450 0.975417
O1    O     O_3   0.499990 0.750000 0.750000 -0.494690
O2    O     O_3   0.499990 0.750000 0.250000 -0.494338
O3    O     O_3   0.499990 0.250000 0.250000 -0.494218
O4    O     O_3   0.499990 0.250000 0.750000 -0.494426
O5    O     O_3   0.999990 0.750000 0.250000 -0.493598
O6    O     O_3   0.999990 0.750000 0.750000 -0.494188
O7    O     O_3   0.999990 0.250000 0.750000 -0.491555
O8    O     O_3   0.999990 0.250000 0.250000 -0.492116
O9    O     O_R   0.534620 0.832000 0.715360 -0.630478
O10   O     O_R   0.534620 0.832000 0.284640 -0.630309
O11   O     O_R   0.534620 0.168000 0.284640 -0.613389
O12   O     O_R   0.534620 0.168000 0.715360 -0.613763
O13   O     O_R   0.534620 0.332000 0.215360 -0.627455
O14   O     O_R   0.534620 0.332000 0.784640 -0.628035
O15   O     O_R   0.534620 0.668000 0.784640 -0.610982
O16   O     O_R   0.534620 0.668000 0.215360 -0.610616
O17   O     O_R   0.034620 0.832000 0.215360 -0.615460
O18   O     O_R   0.034620 0.832000 0.784640 -0.619428
O19   O     O_R   0.034620 0.168000 0.784640 -0.620874
O20   O     O_R   0.034620 0.168000 0.215360 -0.609483
O21   O     O_R   0.034620 0.332000 0.715360 -0.628550
O22   O     O_R   0.034620 0.332000 0.284640 -0.628145
O23   O     O_R   0.034620 0.668000 0.284640 -0.610554
O24   O     O_R   0.034620 0.668000 0.715360 -0.611046
O25   O     O_R   0.465390 0.771500 0.882020 -0.638694
O26   O     O_R   0.465390 0.771500 0.117980 -0.638189
O27   O     O_R   0.465390 0.228500 0.117980 -0.636933
O28   O     O_R   0.465390 0.228500 0.882020 -0.637309
O29   O     O_R   0.465390 0.271500 0.382020 -0.639960
O30   O     O_R   0.465390 0.271500 0.617980 -0.639716
O31   O     O_R   0.465390 0.728500 0.617980 -0.637959
O32   O     O_R   0.465390 0.728500 0.382020 -0.638101
O33   O     O_R   0.965390 0.771500 0.382020 -0.641269
O34   O     O_R   0.965390 0.771500 0.617980 -0.639521
O35   O     O_R   0.965390 0.228500 0.617980 -0.637630
O36   O     O_R   0.965390 0.228500 0.382020 -0.639148
O37   O     O_R   0.965390 0.271500 0.882020 -0.638718
O38   O     O_R   0.965390 0.271500 0.117980 -0.639004
O39   O     O_R   0.965390 0.728500 0.117980 -0.638450
O40   O     O_R   0.965390 0.728500 0.882020 -0.638118
O41   O     O_R   0.367970 0.771500 0.784600 -0.629426
O42   O     O_R   0.367970 0.771500 0.215400 -0.630622
O43   O     O_R   0.367970 0.228500 0.215400 -0.628481
O44   O     O_R   0.367970 0.228500 0.784600 -0.628205
O45   O     O_R   0.367970 0.271500 0.284600 -0.638312
O46   O     O_R   0.367970 0.271500 0.715400 -0.638221
O47   O     O_R   0.367970 0.728500 0.715400 -0.635614
O48   O     O_R   0.367970 0.728500 0.284600 -0.635234
O49   O     O_R   0.867970 0.771500 0.284600 -0.638229
O50   O     O_R   0.867970 0.771500 0.715400 -0.638287
O51   O     O_R   0.867970 0.228500 0.715400 -0.636759
O52   O     O_R   0.867970 0.228500 0.284600 -0.635204
O53   O     O_R   0.867970 0.271500 0.784600 -0.637574
O54   O     O_R   0.867970 0.271500 0.215400 -0.637462
O55   O     O_R   0.867970 0.728500 0.215400 -0.633618
O56   O     O_R   0.867970 0.728500 0.784600 -0.633995
O57   O     O_R   0.632030 0.771500 0.715390 -0.641915
O58   O     O_R   0.632030 0.771500 0.284610 -0.641908
O59   O     O_R   0.632030 0.228500 0.284610 -0.633091
O60   O     O_R   0.632030 0.228500 0.715390 -0.633384
O61   O     O_R   0.632030 0.271500 0.215390 -0.641300
O62   O     O_R   0.632030 0.271500 0.784610 -0.641385
O63   O     O_R   0.632030 0.728500 0.784610 -0.632546
O64   O     O_R   0.632030 0.728500 0.215390 -0.632244
O65   O     O_R   0.132030 0.771500 0.215390 -0.631721
O66   O     O_R   0.132030 0.771500 0.784610 -0.628755
O67   O     O_R   0.132030 0.228500 0.784610 -0.626027
O68   O     O_R   0.132030 0.228500 0.215390 -0.625115
O69   O     O_R   0.132030 0.271500 0.715390 -0.641657
O70   O     O_R   0.132030 0.271500 0.284610 -0.642302
O71   O     O_R   0.132030 0.728500 0.284610 -0.634436
O72   O     O_R   0.132030 0.728500 0.715390 -0.635215
O73   O     O_R   0.534610 0.728510 0.882040 -0.624102
O74   O     O_R   0.534610 0.728510 0.117960 -0.624166
O75   O     O_R   0.534610 0.271490 0.117960 -0.629496
O76   O     O_R   0.534610 0.271490 0.882040 -0.629749
O77   O     O_R   0.534610 0.228510 0.382040 -0.622739
O78   O     O_R   0.534610 0.228510 0.617960 -0.622659
O79   O     O_R   0.534610 0.771490 0.617960 -0.628465
O80   O     O_R   0.534610 0.771490 0.382040 -0.628676
O81   O     O_R   0.034610 0.728510 0.382040 -0.622331
O82   O     O_R   0.034610 0.728510 0.617960 -0.622291
O83   O     O_R   0.034610 0.271490 0.617960 -0.627232
O84   O     O_R   0.034610 0.271490 0.382040 -0.627243
O85   O     O_R   0.034610 0.228510 0.882040 -0.633273
O86   O     O_R   0.034610 0.228510 0.117960 -0.630632
O87   O     O_R   0.034610 0.771490 0.117960 -0.629211
O88   O     O_R   0.034610 0.771490 0.882040 -0.632435
O89   O     O_R   0.465400 0.832000 0.784590 -0.635885
O90   O     O_R   0.465400 0.832000 0.215410 -0.636837
O91   O     O_R   0.465400 0.168000 0.215410 -0.641657
O92   O     O_R   0.465400 0.168000 0.784590 -0.640807
O93   O     O_R   0.465400 0.332000 0.284590 -0.643332
O94   O     O_R   0.465400 0.332000 0.715410 -0.643294
O95   O     O_R   0.465400 0.668000 0.715410 -0.648271
O96   O     O_R   0.465400 0.668000 0.284590 -0.648131
O97   O     O_R   0.965400 0.832000 0.284590 -0.647247
O98   O     O_R   0.965400 0.832000 0.715410 -0.643070
O99   O     O_R   0.965400 0.168000 0.715410 -0.647161
O100  O     O_R   0.965400 0.168000 0.284590 -0.651272
O101  O     O_R   0.965400 0.332000 0.784590 -0.642521
O102  O     O_R   0.965400 0.332000 0.215410 -0.642320
O103  O     O_R   0.965400 0.668000 0.215410 -0.647293
O104  O     O_R   0.965400 0.668000 0.784590 -0.647342
C1    C     C_R   0.500033 0.849628 0.749946 0.828296
C2    C     C_R   0.499992 0.849626 0.250101 0.826795
C3    C     C_R   0.500035 0.150370 0.250081 0.823445
C4    C     C_R   0.500111 0.150367 0.749954 0.825184
C5    C     C_R   0.499960 0.349626 0.249906 0.825531
C6    C     C_R   0.499972 0.349625 0.750100 0.825479
C7    C     C_R   0.500013 0.650371 0.750077 0.822060
C8    C     C_R   0.500029 0.650370 0.249916 0.822156
C9    C     C_R   0.999984 0.849642 0.250037 0.814498
C10   C     C_R   0.999975 0.849632 0.750016 0.817893
C11   C     C_R   0.999877 0.150357 0.750042 0.829523
C12   C     C_R   0.999954 0.150367 0.249894 0.820343
C13   C     C_R   0.999963 0.349626 0.749909 0.825529
C14   C     C_R   0.999971 0.349625 0.250103 0.825944
C15   C     C_R   0.000016 0.650371 0.250076 0.823082
C16   C     C_R   0.000030 0.650370 0.749917 0.822727
C17   C     C_R   0.499989 0.750008 0.910158 0.841536
C18   C     C_R   0.499998 0.750003 0.089842 0.841880
C19   C     C_R   0.499990 0.249993 0.089847 0.842705
C20   C     C_R   0.499997 0.249997 0.910153 0.842424
C21   C     C_R   0.499989 0.250008 0.410158 0.845394
C22   C     C_R   0.499998 0.250003 0.589842 0.846243
C23   C     C_R   0.499990 0.749993 0.589847 0.846657
C24   C     C_R   0.499996 0.749997 0.410153 0.845871
C25   C     C_R   0.000003 0.750018 0.410158 0.843505
C26   C     C_R   0.000013 0.750014 0.589842 0.844591
C27   C     C_R   0.999999 0.249986 0.589846 0.851373
C28   C     C_R   0.000007 0.249989 0.410154 0.847183
C29   C     C_R   0.999991 0.250009 0.910158 0.837610
C30   C     C_R   0.999999 0.250004 0.089842 0.837944
C31   C     C_R   0.999992 0.749992 0.089847 0.838572
C32   C     C_R   0.999998 0.749995 0.910153 0.837228
C33   C     C_R   0.339849 0.749999 0.750008 0.847712
C34   C     C_R   0.339853 0.750001 0.249997 0.845707
C35   C     C_R   0.339848 0.250005 0.250001 0.846770
C36   C     C_R   0.339853 0.250007 0.750003 0.848225
C37   C     C_R   0.839848 0.750003 0.250003 0.842794
C38   C     C_R   0.839853 0.750003 0.749999 0.841368
C39   C     C_R   0.839848 0.250004 0.750002 0.841046
C40   C     C_R   0.839853 0.250003 0.250000 0.841937
C41   C     C_R   0.660143 0.750001 0.750005 0.834044
C42   C     C_R   0.660148 0.750000 0.249994 0.834612
C43   C     C_R   0.660143 0.250001 0.250006 0.834094
C44   C     C_R   0.660148 0.250000 0.749993 0.834231
C45   C     C_R   0.160143 0.750000 0.250006 0.833691
C46   C     C_R   0.160148 0.749994 0.750000 0.839325
C47   C     C_R   0.160143 0.250005 0.750010 0.845536
C48   C     C_R   0.160148 0.250001 0.249993 0.841209
C49   C     C_1   0.723371 0.750003 0.750006 -0.151968
C50   C     C_1   0.723372 0.750001 0.249993 -0.151945
C51   C     C_1   0.723371 0.250004 0.250008 -0.152449
C52   C     C_1   0.723372 0.250002 0.749991 -0.152667
C53   C     C_1   0.223371 0.749998 0.250007 -0.144202
C54   C     C_1   0.223373 0.749988 0.750001 -0.139871
C55   C     C_1   0.223371 0.250012 0.750015 -0.143194
C56   C     C_1   0.223372 0.250006 0.249991 -0.144140
C57   C     C_1   0.776624 0.750006 0.749999 -0.155371
C58   C     C_1   0.776622 0.750007 0.250003 -0.155797
C59   C     C_1   0.776624 0.250007 0.250001 -0.156044
C60   C     C_1   0.776623 0.250007 0.750001 -0.156058
C61   C     C_1   0.276624 0.750001 0.249999 -0.147241
C62   C     C_1   0.276623 0.749995 0.750012 -0.143840
C63   C     C_1   0.276624 0.250016 0.750008 -0.145267
C64   C     C_1   0.276623 0.250011 0.250001 -0.147154
C65   C     C_3   0.555481 0.522734 0.801007 0.156868
C66   C     C_3   0.556954 0.522686 0.200518 0.156615
C67   C     C_3   0.557881 0.476927 0.202066 0.145229
C68   C     C_3   0.556500 0.476975 0.799495 0.145130
C69   C     C_3   0.554654 0.022730 0.302486 0.156151
C70   C     C_3   0.555420 0.022685 0.697807 0.155541
C71   C     C_3   0.556399 0.976909 0.699310 0.144412
C72   C     C_3   0.555716 0.976965 0.300963 0.144361
C73   C     C_3   0.056278 0.522728 0.300188 0.156733
C74   C     C_3   0.056435 0.522689 0.699935 0.156708
C75   C     C_3   0.057389 0.476930 0.701477 0.145175
C76   C     C_3   0.057256 0.476970 0.298663 0.145150
C77   C     C_3   0.048301 0.022850 0.688852 0.163963
C78   C     C_3   0.077004 0.022621 0.258678 0.165051
C79   C     C_3   0.076276 0.976902 0.261849 0.151745
C80   C     C_3   0.047016 0.977062 0.687754 0.153568
C81   C     C_3   0.521184 0.520471 0.690016 -0.485672
C82   C     C_3   0.519703 0.520505 0.310558 -0.485642
C83   C     C_3   0.514631 0.477863 0.309680 -0.457504
C84   C     C_3   0.516131 0.477828 0.690777 -0.457594
C85   C     C_3   0.522807 0.020478 0.190763 -0.484212
C86   C     C_3   0.523794 0.020509 0.809581 -0.484434
C87   C     C_3   0.518661 0.977865 0.808971 -0.456502
C88   C     C_3   0.517729 0.977839 0.191395 -0.455842
C89   C     C_3   0.020388 0.520471 0.189701 -0.485585
C90   C     C_3   0.020330 0.520505 0.810357 -0.485611
C91   C     C_3   0.015257 0.477863 0.809532 -0.457525
C92   C     C_3   0.015333 0.477828 0.190534 -0.457560
C93   C     C_3   0.939888 0.020496 0.730495 -0.489784
C94   C     C_3   0.972088 0.020999 0.308817 -0.486400
C95   C     C_3   0.968867 0.978283 0.305277 -0.458071
C96   C     C_3   0.941044 0.977824 0.735176 -0.459920
H1    H     H_    0.488595 0.531625 0.657411 0.195753
H2    H     H_    0.486267 0.531692 0.342285 0.195786
H3    H     H_    0.475802 0.469669 0.337377 0.194046
H4    H     H_    0.478065 0.469601 0.662062 0.193981
H5    H     H_    0.490946 0.031636 0.157450 0.201945
H6    H     H_    0.492038 0.031704 0.842979 0.201515
H7    H     H_    0.481290 0.969683 0.838609 0.200172
H8    H     H_    0.480298 0.969620 0.161852 0.200759
H9    H     H_    0.987337 0.531629 0.157567 0.195823
H10   H     H_    0.987223 0.531690 0.842428 0.195771
H11   H     H_    0.976721 0.469665 0.837631 0.193991
H12   H     H_    0.976854 0.469606 0.162369 0.194032
H13   H     H_    0.909447 0.031570 0.765197 0.192060
H14   H     H_    0.926077 0.032266 0.306845 0.192570
H15   H     H_    0.921907 0.970132 0.296799 0.191857
H16   H     H_    0.914903 0.969506 0.774992 0.189048
H17   H     H_    0.564771 0.528617 0.672188 0.166434
H18   H     H_    0.562810 0.528648 0.329526 0.166483
H19   H     H_    0.553216 0.464784 0.331842 0.185335
H20   H     H_    0.555309 0.464752 0.669654 0.185368
H21   H     H_    0.566778 0.028630 0.173911 0.164835
H22   H     H_    0.567827 0.028653 0.826297 0.165628
H23   H     H_    0.558320 0.964778 0.829138 0.184634
H24   H     H_    0.557360 0.964764 0.171129 0.184148
H25   H     H_    0.063718 0.528613 0.171253 0.166511
H26   H     H_    0.063630 0.528652 0.828878 0.166536
H27   H     H_    0.054075 0.464787 0.831289 0.185385
H28   H     H_    0.054198 0.464746 0.168851 0.185403
H29   H     H_    0.919185 0.028711 0.688245 0.166520
H30   H     H_    0.988709 0.029568 0.352690 0.165495
H31   H     H_    0.979760 0.965485 0.348617 0.186434
H32   H     H_    0.917345 0.964813 0.697471 0.188236
C97   C     C_1   0.001483 0.889229 0.748186 -0.110617
C98   C     C_1   0.001431 0.889262 0.251675 -0.116522
C99   C     C_1   0.001817 0.110774 0.251576 -0.107931
C100  C     C_1   0.000880 0.110733 0.748111 -0.105290
C101  C     C_1   0.000165 0.389241 0.250533 -0.116379
C102  C     C_1   0.000158 0.389241 0.749512 -0.116343
C103  C     C_1   0.001138 0.610754 0.750225 -0.105853
C104  C     C_1   0.001085 0.610755 0.249767 -0.105994
C105  C     C_1   0.500227 0.889243 0.250616 -0.108374
C106  C     C_1   0.500539 0.889246 0.749644 -0.105717
C107  C     C_1   0.501569 0.110749 0.750334 -0.094696
C108  C     C_1   0.501142 0.110752 0.249892 -0.097855
C109  C     C_1   0.500140 0.389240 0.750548 -0.116288
C110  C     C_1   0.500158 0.389241 0.249512 -0.116170
C111  C     C_1   0.501143 0.610754 0.250234 -0.105647
C112  C     C_1   0.501042 0.610755 0.749798 -0.105737
C113  C     C_3   0.507802 0.536674 0.752662 0.191765
C114  C     C_3   0.508010 0.536672 0.247575 0.191494
C115  C     C_3   0.505551 0.463350 0.245288 0.208385
C116  C     C_3   0.505350 0.463354 0.754912 0.208761
C117  C     C_3   0.508050 0.036676 0.253098 0.183026
C118  C     C_3   0.508903 0.036676 0.747276 0.173334
C119  C     C_3   0.506309 0.963346 0.745126 0.190282
C120  C     C_3   0.505546 0.963352 0.255268 0.199187
C121  C     C_3   0.007912 0.536674 0.252531 0.191626
C122  C     C_3   0.007982 0.536672 0.747499 0.191535
C123  C     C_3   0.005511 0.463350 0.745237 0.208649
C124  C     C_3   0.005469 0.463354 0.254816 0.208475
C125  C     C_3   0.003345 0.036663 0.739814 0.183937
C126  C     C_3   0.009178 0.036736 0.256211 0.191607
C127  C     C_3   0.008791 0.963383 0.254153 0.206830
C128  C     C_3   0.005820 0.963311 0.741560 0.198483
C129  C     C_3   0.029018 0.979455 0.801305 -0.356245
C130  C     C_3   0.981756 0.979400 0.195956 -0.364592
C131  C     C_3   0.977483 0.021912 0.199506 -0.378530
C132  C     C_3   0.022860 0.021952 0.801874 -0.366919
C133  C     C_3   0.944633 0.479648 0.274855 -0.367099
C134  C     C_3   0.944722 0.479642 0.725082 -0.367444
C135  C     C_3   0.944823 0.522175 0.731142 -0.377995
C136  C     C_3   0.944726 0.522179 0.268778 -0.378180
C137  C     C_3   0.444041 0.979642 0.273129 -0.360160
C138  C     C_3   0.444808 0.979656 0.727394 -0.348545
C139  C     C_3   0.445168 0.022170 0.733449 -0.359786
C140  C     C_3   0.444340 0.022168 0.267070 -0.372910
C141  C     C_3   0.444229 0.479641 0.774081 -0.367367
C142  C     C_3   0.444978 0.479645 0.224502 -0.367188
C143  C     C_3   0.445023 0.522178 0.230563 -0.378005
C144  C     C_3   0.444396 0.522172 0.768006 -0.378250
C145  C     C_1   0.003232 0.922506 0.745624 -0.011744
C146  C     C_1   0.003901 0.922560 0.253085 -0.022335
C147  C     C_1   0.004602 0.077501 0.253618 -0.048763
C148  C     C_1   0.001637 0.077446 0.744789 -0.048365
C149  C     C_1   0.001674 0.422544 0.252005 -0.019490
C150  C     C_1   0.001687 0.422544 0.748052 -0.019657
C151  C     C_1   0.003669 0.577453 0.749574 -0.050967
C152  C     C_1   0.003598 0.577453 0.250431 -0.050984
C153  C     C_1   0.501793 0.922544 0.252251 -0.013199
C154  C     C_1   0.502384 0.922544 0.748117 -0.010835
C155  C     C_1   0.504471 0.077455 0.749558 -0.041403
C156  C     C_1   0.503738 0.077453 0.250772 -0.044124
C157  C     C_1   0.501610 0.422544 0.752046 -0.019638
C158  C     C_1   0.501697 0.422544 0.248066 -0.019588
C159  C     C_1   0.503682 0.577453 0.249607 -0.050949
C160  C     C_1   0.503518 0.577453 0.750500 -0.051190
H33   H     H_    0.425600 0.535455 0.808231 0.221414
H34   H     H_    0.427312 0.535442 0.189851 0.221831
H35   H     H_    0.433970 0.472124 0.178182 0.249088
H36   H     H_    0.432000 0.472146 0.820097 0.248669
H37   H     H_    0.424664 0.035449 0.306880 0.222817
H38   H     H_    0.425426 0.035431 0.693675 0.232047
H39   H     H_    0.431501 0.972141 0.681676 0.256407
H40   H     H_    0.430820 0.972143 0.318870 0.251502
H41   H     H_    0.926503 0.535465 0.309264 0.221571
H42   H     H_    0.926686 0.535438 0.690617 0.221677
H43   H     H_    0.933233 0.472121 0.678879 0.248909
H44   H     H_    0.933056 0.472154 0.321041 0.248868
H45   H     H_    0.064194 0.035198 0.818163 0.230746
H46   H     H_    0.994482 0.034877 0.158235 0.223473
H47   H     H_    0.007399 0.971589 0.155974 0.250420
H48   H     H_    0.075804 0.971957 0.810335 0.254790
H49   H     H_    0.412951 0.530008 0.731918 0.164702
H50   H     H_    0.412634 0.530047 0.265803 0.164647
H51   H     H_    0.408304 0.468143 0.252074 0.160289
H52   H     H_    0.408312 0.468109 0.745554 0.160439
H53   H     H_    0.413695 0.030000 0.230306 0.181249
H54   H     H_    0.414607 0.030030 0.770282 0.184085
H55   H     H_    0.409556 0.968162 0.756763 0.179681
H56   H     H_    0.408750 0.968115 0.243832 0.175475
H57   H     H_    0.912770 0.530018 0.233143 0.164595
H58   H     H_    0.912802 0.530042 0.766718 0.164742
H59   H     H_    0.908338 0.468138 0.753033 0.160145
H60   H     H_    0.908309 0.468121 0.246843 0.160464
H61   H     H_    0.988842 0.029655 0.835640 0.167998
H62   H     H_    0.929638 0.029817 0.200725 0.162389
H63   H     H_    0.936391 0.967912 0.188923 0.154856
H64   H     H_    0.002980 0.967817 0.838965 0.163760
C161  C     C_1   0.499981 0.749990 0.526621 -0.142501
C162  C     C_1   0.499989 0.749995 0.473379 -0.142616
C163  C     C_1   0.499979 0.250011 0.473380 -0.138401
C164  C     C_1   0.499991 0.250004 0.526620 -0.138253
C165  C     C_1   0.499981 0.249990 0.026621 -0.142344
C166  C     C_1   0.499989 0.249995 0.973379 -0.142295
C167  C     C_1   0.499979 0.750011 0.973380 -0.137916
C168  C     C_1   0.499991 0.750004 0.026620 -0.138054
C169  C     C_1   0.999983 0.749986 0.026621 -0.147930
C170  C     C_1   0.999991 0.749991 0.973379 -0.148174
C171  C     C_1   0.999982 0.250015 0.973380 -0.148797
C172  C     C_1   0.999993 0.250008 0.026620 -0.148204
C173  C     C_1   0.999998 0.249974 0.526621 -0.142550
C174  C     C_1   0.000006 0.249979 0.473379 -0.143400
C175  C     C_1   0.000005 0.750034 0.473380 -0.142192
C176  C     C_1   0.000017 0.750028 0.526620 -0.141915
C177  C     C_R   0.023004 0.958745 0.628819 0.032100
C178  C     C_R   0.972097 0.971595 0.598009 -0.171098
C179  C     C_R   0.952893 0.955099 0.545292 -0.118847
C180  C     C_R   0.982613 0.924517 0.522423 -0.101202
C181  C     C_R   0.031036 0.909981 0.552802 -0.168532
C182  C     C_R   0.050650 0.926476 0.605367 -0.081491
H65   H     H_    0.946819 0.994813 0.613351 0.136419
H66   H     H_    0.914633 0.966112 0.522173 0.130931
H67   H     H_    0.967713 0.911824 0.481530 0.134508
H68   H     H_    0.053507 0.885733 0.535678 0.134708
H69   H     H_    0.087482 0.913201 0.627499 0.183839
C183  C     C_R   0.100922 0.959069 0.320832 0.035973
C184  C     C_R   0.088607 0.973106 0.378353 -0.187154
C185  C     C_R   0.109101 0.955437 0.429583 -0.110353
C186  C     C_R   0.141724 0.922882 0.425377 -0.092007
C187  C     C_R   0.153414 0.907678 0.369892 -0.163864
C188  C     C_R   0.132989 0.925169 0.318497 -0.072814
H70   H     H_    0.062654 0.997567 0.385013 0.136481
H71   H     H_    0.099036 0.966835 0.472846 0.146608
H72   H     H_    0.157250 0.909174 0.465171 0.138683
H73   H     H_    0.177842 0.881952 0.366588 0.139001
H74   H     H_    0.141703 0.911194 0.276999 0.185906
C189  C     C_R   0.115137 0.039853 0.310240 0.078586
C190  C     C_R   0.094045 0.066285 0.352000 -0.179529
C191  C     C_R   0.131816 0.082068 0.394250 -0.149827
C192  C     C_R   0.191326 0.071923 0.396804 -0.088231
C193  C     C_R   0.213614 0.046442 0.356299 -0.126872
C194  C     C_R   0.176405 0.031034 0.313315 -0.049133
H75   H     H_    0.048898 0.075632 0.353596 0.124468
H76   H     H_    0.114648 0.102200 0.425443 0.141988
H77   H     H_    0.220262 0.084042 0.429873 0.148565
H78   H     H_    0.260117 0.038871 0.357655 0.148146
H79   H     H_    0.196448 0.012428 0.282110 0.190818
C195  C     C_R   0.035668 0.039348 0.625530 0.078016
C196  C     C_R   0.074918 0.030209 0.578581 -0.044497
C197  C     C_R   0.065757 0.042983 0.520858 -0.165087
C198  C     C_R   0.018118 0.066168 0.508275 -0.117820
C199  C     C_R   0.980262 0.077202 0.553735 -0.116284
C200  C     C_R   0.989032 0.064442 0.611653 -0.169014
H80   H     H_    0.112830 0.012764 0.585960 0.188210
H81   H     H_    0.095921 0.034842 0.485887 0.143908
H82   H     H_    0.010906 0.075963 0.463476 0.118858
H83   H     H_    0.943847 0.095832 0.544141 0.137466
H84   H     H_    0.958203 0.074784 0.643912 0.131479
C201  C     C_R   0.117114 0.458558 0.277285 0.022991
C202  C     C_R   0.150643 0.471603 0.228298 -0.175214
C203  C     C_R   0.203204 0.454329 0.210409 -0.117355
C204  C     C_R   0.223315 0.422842 0.239635 -0.115864
C205  C     C_R   0.190451 0.408286 0.286371 -0.149696
C206  C     C_R   0.138005 0.425544 0.304651 -0.061209
H85   H     H_    0.137228 0.495290 0.203124 0.137956
H86   H     H_    0.228226 0.465353 0.173395 0.136850
H87   H     H_    0.263947 0.409443 0.225556 0.134628
H88   H     H_    0.205372 0.383324 0.308358 0.148556
H89   H     H_    0.113704 0.412162 0.339971 0.193081
C207  C     C_R   0.117195 0.458520 0.722969 0.023025
C208  C     C_R   0.150637 0.471590 0.772010 -0.175324
C209  C     C_R   0.203158 0.454319 0.789996 -0.117102
C210  C     C_R   0.223311 0.422811 0.760815 -0.115838
C211  C     C_R   0.190527 0.408230 0.714029 -0.150034
C212  C     C_R   0.138123 0.425485 0.695652 -0.061217
H90   H     H_    0.137184 0.495295 0.797153 0.137992
H91   H     H_    0.228115 0.465362 0.827049 0.137144
H92   H     H_    0.263912 0.409414 0.774969 0.134860
H93   H     H_    0.205478 0.383252 0.692077 0.148536
H94   H     H_    0.113881 0.412085 0.660296 0.193058
C213  C     C_R   0.120477 0.539183 0.708787 0.072116
C214  C     C_R   0.137030 0.564349 0.754422 -0.164576
C215  C     C_R   0.195117 0.577711 0.759105 -0.118648
C216  C     C_R   0.238135 0.567157 0.718142 -0.102023
C217  C     C_R   0.222966 0.543631 0.671724 -0.135231
C218  C     C_R   0.165015 0.530227 0.666688 -0.033847
H95   H     H_    0.106759 0.574350 0.787464 0.123412
H96   H     H_    0.206723 0.596492 0.794710 0.130167
H97   H     H_    0.283058 0.577542 0.722000 0.128489
H98   H     H_    0.256129 0.535834 0.639254 0.135538
H99   H     H_    0.155473 0.512716 0.629391 0.192744
C219  C     C_R   0.120331 0.539229 0.291451 0.072040
C220  C     C_R   0.164785 0.530310 0.333642 -0.033769
C221  C     C_R   0.222739 0.543725 0.328714 -0.135141
C222  C     C_R   0.237992 0.567221 0.282313 -0.102214
C223  C     C_R   0.195056 0.577736 0.241258 -0.118577
C224  C     C_R   0.136968 0.564365 0.245834 -0.164485
H100  H     H_    0.155175 0.512825 0.370930 0.192809
H101  H     H_    0.255838 0.535958 0.361254 0.135630
H102  H     H_    0.282918 0.577615 0.278539 0.128466
H103  H     H_    0.206729 0.596494 0.205665 0.130238
H104  H     H_    0.106763 0.574336 0.212725 0.123422
C225  C     C_R   0.616301 0.958568 0.281731 0.023834
C226  C     C_R   0.651580 0.971645 0.234013 -0.171999
C227  C     C_R   0.704692 0.954335 0.217930 -0.124057
C228  C     C_R   0.723682 0.922795 0.247752 -0.119134
C229  C     C_R   0.689170 0.908228 0.293275 -0.147259
C230  C     C_R   0.636152 0.925514 0.309742 -0.062921
H105  H     H_    0.639114 0.995366 0.208442 0.136114
H106  H     H_    0.731022 0.965370 0.181841 0.125053
H107  H     H_    0.764742 0.909364 0.235059 0.127421
H108  H     H_    0.703252 0.883232 0.315706 0.147334
H109  H     H_    0.610594 0.912119 0.344149 0.192678
C231  C     C_R   0.617001 0.958475 0.718379 0.024887
C232  C     C_R   0.652432 0.971548 0.766002 -0.171905
C233  C     C_R   0.705691 0.954308 0.781764 -0.123844
C234  C     C_R   0.724662 0.922822 0.751742 -0.117656
C235  C     C_R   0.689961 0.908222 0.706375 -0.146244
C236  C     C_R   0.636800 0.925446 0.690219 -0.064074
H110  H     H_    0.640014 0.995249 0.791682 0.136234
H111  H     H_    0.732165 0.965364 0.817740 0.124830
H112  H     H_    0.765853 0.909456 0.764163 0.127284
H113  H     H_    0.704022 0.883259 0.683802 0.147836
H114  H     H_    0.611121 0.912039 0.655899 0.192793
C237  C     C_R   0.619773 0.039158 0.704103 0.074414
C238  C     C_R   0.638099 0.064374 0.748976 -0.162934
C239  C     C_R   0.696362 0.077677 0.751406 -0.124375
C240  C     C_R   0.737778 0.067018 0.708885 -0.106300
C241  C     C_R   0.720791 0.043460 0.663142 -0.133586
C242  C     C_R   0.662645 0.030123 0.660345 -0.034248
H115  H     H_    0.609103 0.074448 0.783092 0.121769
H116  H     H_    0.709360 0.096494 0.786480 0.124897
H117  H     H_    0.782853 0.077345 0.711010 0.123371
H118  H     H_    0.752685 0.035582 0.629471 0.132106
H119  H     H_    0.651644 0.012575 0.623498 0.191999
C243  C     C_R   0.618965 0.039255 0.296124 0.073132
C244  C     C_R   0.661837 0.030361 0.339937 -0.033745
C245  C     C_R   0.719878 0.043874 0.337229 -0.134840
C246  C     C_R   0.736775 0.067432 0.291483 -0.106021
C247  C     C_R   0.695389 0.077893 0.248832 -0.123647
C248  C     C_R   0.637225 0.064426 0.251186 -0.163020
H120  H     H_    0.650897 0.012845 0.376815 0.192242
H121  H     H_    0.751754 0.036144 0.370991 0.133098
H122  H     H_    0.781760 0.077914 0.289440 0.124938
H123  H     H_    0.708326 0.096687 0.213731 0.125193
H124  H     H_    0.608256 0.074362 0.216966 0.121769
C249  C     C_R   0.616660 0.458571 0.778969 0.022840
C250  C     C_R   0.650887 0.471626 0.730475 -0.175207
C251  C     C_R   0.703693 0.454352 0.713322 -0.117794
C252  C     C_R   0.723376 0.422854 0.742807 -0.115719
C253  C     C_R   0.689844 0.408287 0.789059 -0.148843
C254  C     C_R   0.637148 0.425547 0.806604 -0.060995
H125  H     H_    0.637832 0.495317 0.705122 0.137965
H126  H     H_    0.729241 0.465383 0.676674 0.136742
H127  H     H_    0.764201 0.409454 0.729298 0.134677
H128  H     H_    0.704440 0.383317 0.811236 0.148564
H129  H     H_    0.612337 0.412156 0.841561 0.193056
C255  C     C_R   0.617457 0.458511 0.224172 0.023312
C256  C     C_R   0.650386 0.471572 0.273564 -0.175310
C257  C     C_R   0.702709 0.454293 0.292096 -0.117201
C258  C     C_R   0.723161 0.422787 0.263118 -0.115557
C259  C     C_R   0.690868 0.408216 0.215984 -0.150338
C260  C     C_R   0.638664 0.425478 0.197064 -0.061709
H130  H     H_    0.636677 0.495277 0.298569 0.137937
H131  H     H_    0.727278 0.465330 0.329413 0.137055
H132  H     H_    0.763607 0.409385 0.277692 0.134969
H133  H     H_    0.706044 0.383240 0.194181 0.148384
H134  H     H_    0.614792 0.412084 0.161451 0.192979
C261  C     C_R   0.620905 0.539173 0.210039 0.072524
C262  C     C_R   0.636985 0.564340 0.255842 -0.164767
C263  C     C_R   0.695023 0.577695 0.261131 -0.118649
C264  C     C_R   0.738467 0.567133 0.220626 -0.101694
C265  C     C_R   0.723780 0.543604 0.174056 -0.135832
C266  C     C_R   0.665880 0.530208 0.168412 -0.034351
H135  H     H_    0.606371 0.574347 0.288562 0.123328
H136  H     H_    0.706260 0.596478 0.296853 0.130082
H137  H     H_    0.783352 0.577511 0.224954 0.128427
H138  H     H_    0.757282 0.535799 0.141940 0.135109
H139  H     H_    0.656725 0.512695 0.131022 0.192357
C267  C     C_R   0.619642 0.539247 0.793188 0.071719
C268  C     C_R   0.663485 0.530342 0.836018 -0.033422
C269  C     C_R   0.721490 0.543778 0.831937 -0.134845
C270  C     C_R   0.737396 0.567284 0.785764 -0.102498
C271  C     C_R   0.695055 0.577781 0.744087 -0.118360
C272  C     C_R   0.636921 0.564387 0.747813 -0.164248
H140  H     H_    0.653345 0.512853 0.873162 0.193162
H141  H     H_    0.754115 0.536025 0.864958 0.136014
H142  H     H_    0.782360 0.577695 0.782648 0.128646
H143  H     H_    0.707226 0.596545 0.708667 0.130193
H144  H     H_    0.607197 0.574345 0.714263 0.123326
N1    N     N_R   0.534528 0.537252 0.859612 0.236515
O105  O     O_R   0.553055 0.569363 0.878416 -0.344943
O106  O     O_R   0.489994 0.522494 0.887884 -0.320413
N2    N     N_R   0.537596 0.537179 0.141374 0.236314
O107  O     O_R   0.556683 0.569261 0.123045 -0.345270
O108  O     O_R   0.493801 0.522433 0.111942 -0.318336
N3    N     N_R   0.547734 0.462563 0.140613 0.228068
O109  O     O_R   0.584933 0.470704 0.098375 -0.345760
O110  O     O_R   0.507722 0.437603 0.128841 -0.381578
N4    N     N_R   0.544742 0.462639 0.860661 0.227865
O111  O     O_R   0.580808 0.470809 0.903861 -0.343143
O112  O     O_R   0.504445 0.437678 0.871382 -0.382961
N5    N     N_R   0.532394 0.037233 0.360615 0.236322
O113  O     O_R   0.550410 0.069371 0.379791 -0.344205
O114  O     O_R   0.487285 0.022437 0.387915 -0.315751
N6    N     N_R   0.533126 0.037186 0.639713 0.235993
O115  O     O_R   0.551280 0.069269 0.620463 -0.343209
O116  O     O_R   0.487909 0.022448 0.612506 -0.310278
N7    N     N_R   0.543153 0.962551 0.638448 0.227146
O117  O     O_R   0.578158 0.970703 0.594381 -0.342624
O118  O     O_R   0.502639 0.937563 0.628723 -0.374623
N8    N     N_R   0.542635 0.962608 0.361845 0.227791
O119  O     O_R   0.577748 0.970768 0.405826 -0.342579
O120  O     O_R   0.502124 0.937636 0.371661 -0.377622
N9    N     N_R   0.036174 0.537249 0.359086 0.236423
O121  O     O_R   0.055006 0.569347 0.377641 -0.344997
O122  O     O_R   0.992028 0.522505 0.387981 -0.319455
N10   N     N_R   0.036456 0.537177 0.640995 0.236421
O123  O     O_R   0.055339 0.569261 0.622467 -0.345013
O124  O     O_R   0.992361 0.522425 0.612023 -0.319242
N11   N     N_R   0.046611 0.462564 0.640134 0.227979
O125  O     O_R   0.083373 0.470703 0.597515 -0.344499
O126  O     O_R   0.006476 0.437606 0.628774 -0.382187
N12   N     N_R   0.046366 0.462638 0.359991 0.227969
O127  O     O_R   0.083041 0.470810 0.402675 -0.344277
O128  O     O_R   0.006217 0.437682 0.371287 -0.382248
N13   N     N_R   0.108195 0.037469 0.705553 0.235460
O129  O     O_R   0.125987 0.069290 0.684907 -0.372451
O130  O     O_R   0.139316 0.023031 0.748424 -0.338380
N14   N     N_R   0.105738 0.036317 0.202956 0.232514
O131  O     O_R   0.131301 0.068684 0.202385 -0.362897
O132  O     O_R   0.096674 0.020585 0.151736 -0.341068
N15   N     N_R   0.113815 0.961808 0.212655 0.226570
O133  O     O_R   0.170286 0.969316 0.210679 -0.382218
O134  O     O_R   0.094147 0.937235 0.175218 -0.385005
N16   N     N_R   0.108938 0.962892 0.695666 0.223754
O135  O     O_R   0.149896 0.971518 0.657312 -0.380201
O136  O     O_R   0.122127 0.937489 0.734477 -0.392466

loop_
_geom_bond_atom_site_label_1
_geom_bond_atom_site_label_2
_geom_bond_distance
_ccdc_geom_bond_type
C119  C154  1.478628 S    
Zn29  O101  1.912696 S    
Zn4   O4    1.926980 S    
C221  H101  1.082502 S    
O98   C10   1.272785 A    
N1    O105  1.303790 A    
C261  C262  1.422165 A    
O48   C34   1.269813 A    
C188  H74   1.080365 S    
C235  C236  1.397278 A    
C94   H30   1.101319 S    
N13   O129  1.303739 A    
C66   C114  1.610290 S    
C255  C260  1.422961 A    
C260  H134  1.080229 S    
C267  C268  1.417534 A    
Zn28  O52   1.918393 S    
Zn28  O8    1.927282 S    
O15   C7    1.272559 A    
C89   C92   1.545247 S    
N6    O115  1.303786 A    
O16   C8    1.272506 A    
C36   C63   1.423728 S    
C205  C206  1.397264 A    
C135  H42   1.109220 S    
O60   C44   1.269716 A    
Zn13  O19   1.912954 S    
C249  C254  1.422952 A    
O63   C41   1.270014 A    
Zn14  O20   1.913195 S    
O50   C38   1.269884 A    
N10   O123  1.303779 A    
C80   C128  1.605461 S    
C259  H133  1.082586 S    
C107  C155  1.204915 T    
C9    C98   1.432510 S    
Zn11  O83   1.919084 S    
C74   N10   1.496774 S    
Zn26  O98   1.912454 S    
Zn2   O2    1.926458 S    
Zn5   O11   1.912954 S    
C184  H70   1.069967 S    
Zn6   O12   1.913195 S    
Zn25  O49   1.918566 S    
Zn7   O1    1.927388 S    
C207  C212  1.422956 A    
Zn23  O47   1.918303 S    
Zn15  O65   1.918307 S    
C99   C147  1.204839 T    
C6    C109  1.431532 S    
O104  C16   1.274098 A    
N2    O108  1.302391 A    
Zn29  O37   1.919351 S    
O36   C28   1.269798 A    
C204  H87   1.082434 S    
Zn31  O55   1.918303 S    
C66   C67   1.653998 S    
C73   N9    1.496770 S    
C253  H128  1.082592 S    
Zn7   O79   1.919084 S    
C66   C261  1.573218 S    
Zn22  O46   1.918566 S    
O14   C6    1.272786 A    
C78   N14   1.496748 S    
O21   C13   1.272686 A    
N16   O135  1.301788 A    
Zn26  O6    1.926936 S    
C229  C230  1.397239 A    
Zn24  O2    1.927282 S    
Zn31  O5    1.926877 S    
C85   H5    1.113865 S    
Zn12  O8    1.926980 S    
C256  H130  1.070429 S    
C208  C209  1.397144 A    
N8    O119  1.301524 A    
C243  C244  1.417639 A    
C258  H132  1.082432 S    
C96   H16   1.114372 S    
C78   C126  1.610961 S    
O45   C35   1.269579 A    
C252  C253  1.390540 A    
O46   C36   1.269866 A    
N4    O111  1.301538 A    
O101  C13   1.273779 A    
Zn11  O69   1.918307 S    
O95   C7    1.274127 A    
Zn14  O68   1.918480 S    
O96   C8    1.274094 A    
Zn18  O90   1.912454 S    
N14   O132  1.302358 A    
C128  C129  1.557142 S    
C264  H137  1.082517 S    
C84   H20   1.107926 S    
C26   C176  1.424402 S    
C184  C185  1.397573 A    
C141  H36   1.106466 S    
C240  C241  1.390219 A    
C65   N1    1.496799 S    
C124  C149  1.478485 S    
O87   C31   1.269797 A    
C211  C212  1.397263 A    
C88   H24   1.107909 S    
C133  C136  1.542973 S    
C53   C61   1.199091 T    
C201  C206  1.422956 A    
C251  H126  1.082557 S    
C190  C191  1.398118 A    
O80   C24   1.269863 A    
C20   C166  1.424485 S    
O71   C45   1.269978 A    
C131  H46   1.109507 S    
C95   H15   1.114233 S    
C270  H142  1.082490 S    
C133  H60   1.113954 S    
C5    C110  1.431529 S    
C116  C141  1.557617 S    
O23   C15   1.272539 A    
Zn21  O3    1.926350 S    
C85   C88   1.545100 S    
Zn22  O4    1.926936 S    
C225  C230  1.422960 A    
Zn10  O6    1.926458 S    
C269  C270  1.390245 A    
Zn2   O64   1.918480 S    
C272  H144  1.071870 S    
C177  C182  1.423135 A    
C86   C118  1.557150 S    
Zn19  O3    1.926877 S    
C165  C166  1.199549 T    
Zn16  O66   1.918217 S    
C179  H66   1.082531 S    
Zn6   O60   1.918480 S    
C213  C214  1.422162 A    
C238  C239  1.398441 A    
O86   C30   1.269623 A    
C231  C236  1.422943 A    
C70   N6    1.496706 S    
Zn15  O17   1.912726 S    
C137  H56   1.113873 S    
O83   C27   1.269816 A    
C215  C216  1.390953 A    
C125  C148  1.478378 S    
O82   C26   1.269654 A    
O81   C25   1.269533 A    
C126  C147  1.477791 S    
C42   C50   1.423605 S    
C101  C149  1.204355 T    
C262  C263  1.398325 A    
C226  C227  1.397131 A    
O33   C25   1.269620 A    
C37   C58   1.423643 S    
C121  C136  1.559854 S    
C103  C151  1.204762 T    
C268  H140  1.073481 S    
C87   H7    1.114304 S    
C122  C135  1.559834 S    
C74   C122  1.610287 S    
C31   C169  1.424483 S    
C178  C179  1.397375 A    
C123  C134  1.557577 S    
O75   C19   1.269783 A    
C171  C172  1.199504 T    
Zn1   O73   1.918999 S    
C180  C181  1.390395 A    
C117  C140  1.559648 S    
O73   C17   1.269493 A    
C246  H122  1.082515 S    
C201  C202  1.418032 A    
C193  C194  1.396370 A    
C113  C144  1.559822 S    
O31   C23   1.269905 A    
O77   C21   1.269494 A    
C114  C143  1.559847 S    
C208  H90   1.070419 S    
C191  C192  1.390305 A    
C115  C142  1.557573 S    
C77   N13   1.496604 S    
O22   C14   1.272772 A    
N5    O113  1.303761 A    
C95   C127  1.556836 S    
Zn19  O91   1.912481 S    
C35   C64   1.423643 S    
C135  H58   1.114762 S    
N12   O128  1.302276 A    
C267  C272  1.422206 A    
C91   C123  1.555972 S    
C250  H125  1.070419 S    
C12   C99   1.431794 S    
C197  C198  1.390147 A    
Zn28  O36   1.919142 S    
C13   C102  1.431526 S    
C93   C96   1.545800 S    
C230  H109  1.080219 S    
Zn16  O88   1.919288 S    
C138  H55   1.113883 S    
C90   H10   1.113854 S    
C96   C128  1.556497 S    
C69   C243  1.573128 S    
Zn32  O56   1.918393 S    
O91   C3    1.274517 A    
O56   C38   1.269843 A    
C245  C246  1.390153 A    
C19   C165  1.424485 S    
O89   C1    1.274274 A    
C73   C219  1.573234 S    
O44   C36   1.269857 A    
Zn15  O5    1.927388 S    
C75   C123  1.605606 S    
C217  H98   1.082495 S    
C143  H34   1.109217 S    
C72   N8    1.495997 S    
C181  H68   1.082569 S    
N15   O133  1.301037 A    
O93   C5    1.273776 A    
C221  C222  1.390189 A    
Zn30  O102  1.912454 S    
C234  C235  1.390537 A    
C222  H102  1.082520 S    
O99   C11   1.272034 A    
C219  C220  1.417594 A    
O26   C18   1.269534 A    
Zn29  O53   1.918566 S    
C93   H13   1.113874 S    
C56   C64   1.199039 T    
C202  H85   1.070412 S    
O20   C12   1.273296 A    
O39   C31   1.269892 A    
C246  C247  1.390982 A    
Zn17  O41   1.918566 S    
C68   C249  1.578040 S    
O40   C32   1.269809 A    
C81   H17   1.100679 S    
Zn15  O87   1.919084 S    
Zn18  O26   1.919057 S    
C270  C271  1.390920 A    
C85   H21   1.100665 S    
C223  C224  1.398329 A    
Zn26  O34   1.919057 S    
C83   H3    1.114324 S    
C234  H112  1.082444 S    
C24   C162  1.424485 S    
Zn19  O27   1.919346 S    
C218  H99   1.073453 S    
C65   C267  1.573187 S    
Zn2   O74   1.919293 S    
O78   C22   1.269612 A    
C142  H35   1.106468 S    
C214  C215  1.398328 A    
Zn28  O100  1.912223 S    
O49   C37   1.269595 A    
Zn13  O67   1.918480 S    
C10   C97   1.431864 S    
C93   C125  1.558059 S    
C187  H73   1.082521 S    
C100  C148  1.205254 T    
C117  C156  1.477595 S    
C28   C174  1.424483 S    
N4    O112  1.302276 A    
C268  C269  1.396594 A    
Zn3   O3    1.927388 S    
Zn1   O63   1.918480 S    
C141  H52   1.113944 S    
C48   C56   1.423605 S    
C71   C231  1.577990 S    
C124  C133  1.557614 S    
Zn3   O61   1.918307 S    
C113  C160  1.477480 S    
Zn8   O2    1.926980 S    
C23   C161  1.424485 S    
C195  C196  1.417174 A    
Zn5   O59   1.918480 S    
C115  C158  1.478475 S    
C141  C144  1.542980 S    
C216  H97   1.082517 S    
C204  C205  1.390533 A    
C89   C121  1.557169 S    
C202  C203  1.397142 A    
Zn4   O62   1.918217 S    
C133  H44   1.106468 S    
Zn20  O28   1.919142 S    
C119  C138  1.557049 S    
C251  C252  1.390491 A    
C219  C224  1.422160 A    
C192  C193  1.389759 A    
C222  C223  1.390954 A    
C95   H31   1.108037 S    
C144  H33   1.109211 S    
C96   H32   1.107870 S    
C196  H80   1.074035 S    
C264  C265  1.390207 A    
O97   C9    1.272596 A    
C108  C156  1.204810 T    
C191  H76   1.082550 S    
C11   C100  1.432616 S    
Zn10  O82   1.919293 S    
C94   H14   1.113922 S    
C197  H81   1.080865 S    
C258  C259  1.390532 A    
C92   H28   1.107909 S    
C93   H29   1.100776 S    
C82   C114  1.557176 S    
C46   C54   1.423614 S    
C105  C153  1.204408 T    
C243  C248  1.422094 A    
C137  H40   1.106491 S    
Zn9   O81   1.918999 S    
C125  C132  1.559211 S    
C193  H78   1.082595 S    
C126  C131  1.558303 S    
C182  H69   1.080056 S    
C121  C152  1.477486 S    
Zn5   O3    1.927041 S    
C122  C151  1.477497 S    
C129  C132  1.541904 S    
Zn6   O4    1.926458 S    
C8    C111  1.431758 S    
C97   C145  1.204513 T    
C240  H117  1.082557 S    
Zn7   O9    1.912726 S    
C40   C59   1.423731 S    
C233  C234  1.390496 A    
O37   C29   1.269638 A    
Zn20  O92   1.912223 S    
Zn27  O35   1.919346 S    
C211  H93   1.082581 S    
C139  H54   1.114652 S    
C67   N3    1.496031 S    
C67   C115  1.605607 S    
N7    O117  1.301557 A    
Zn8   O58   1.918217 S    
C228  C229  1.390516 A    
Zn26  O50   1.918566 S    
C244  H120  1.073369 S    
C237  C238  1.422045 A    
Zn24  O96   1.912223 S    
C104  C152  1.204758 T    
C22   C164  1.424409 S    
C34   C61   1.423731 S    
C80   C177  1.578980 S    
Zn12  O84   1.919288 S    
O72   C46   1.269675 A    
C263  H136  1.082655 S    
O58   C42   1.269579 A    
C198  C199  1.390664 A    
C29   C171  1.424408 S    
O10   C2    1.272520 A    
C82   H18   1.100679 S    
C241  H118  1.082546 S    
C116  C157  1.478474 S    
C118  C139  1.559433 S    
C138  H39   1.106499 S    
C90   H26   1.100675 S    
C209  C210  1.390486 A    
O61   C43   1.269911 A    
C179  C180  1.390494 A    
Zn32  O40   1.919142 S    
C248  H124  1.071873 S    
C81   C84   1.545219 S    
Zn4   O76   1.919288 S    
C4    C107  1.432007 S    
Zn16  O18   1.912984 S    
C78   C189  1.573051 S    
C143  H50   1.114765 S    
Zn8   O80   1.919288 S    
C71   C119  1.605739 S    
C249  C250  1.418019 A    
N16   O136  1.302278 A    
C15   C104  1.431742 S    
C72   C120  1.605661 S    
C43   C51   1.423690 S    
C262  H135  1.071885 S    
C17   C167  1.424408 S    
C16   C103  1.431754 S    
C89   H9    1.113858 S    
C226  H105  1.070380 S    
C102  C150  1.204350 T    
C1    C106  1.431674 S    
C73   C76   1.653972 S    
C41   C49   1.423692 S    
C136  H41   1.109223 S    
O34   C26   1.269494 A    
C271  C272  1.398286 A    
C178  H65   1.070875 S    
O79   C23   1.269783 A    
C266  H139  1.073464 S    
N8    O120  1.302276 A    
C44   C52   1.423605 S    
C70   C237  1.573122 S    
C45   C53   1.423695 S    
C215  H96   1.082646 S    
Zn21  O29   1.919351 S    
C167  C168  1.199504 T    
O85   C29   1.269508 A    
N9    O122  1.302413 A    
C76   C124  1.605590 S    
C69   N5    1.496748 S    
C163  C164  1.199501 T    
O30   C22   1.269533 A    
C237  C242  1.417690 A    
O24   C16   1.272502 A    
O9    C1    1.272254 A    
C118  C155  1.477790 S    
O69   C47   1.269883 A    
O18   C10   1.274023 A    
Zn23  O31   1.919346 S    
C227  H106  1.082564 S    
C220  C221  1.396631 A    
Zn24  O32   1.919142 S    
C83   H19   1.107912 S    
C263  C264  1.390956 A    
N14   O131  1.303785 A    
O13   C5    1.272686 A    
C114  C159  1.477495 S    
N1    O106  1.302362 A    
Zn17  O1    1.926350 S    
C231  C232  1.418038 A    
Zn30  O38   1.919057 S    
C50   C58   1.199035 T    
C247  H123  1.082592 S    
N13   O130  1.302454 A    
C189  C194  1.417489 A    
O55   C37   1.269511 A    
C175  C176  1.199497 T    
C245  H121  1.082550 S    
C2    C105  1.431602 S    
C217  C218  1.396628 A    
O90   C2    1.274094 A    
Zn31  O103  1.912481 S    
C185  H71   1.081978 S    
N11   O126  1.302274 A    
Zn1   O15   1.912954 S    
Zn2   O16   1.913195 S    
C183  C188  1.422697 A    
C127  C146  1.479457 S    
O25   C17   1.269650 A    
Zn3   O13   1.912726 S    
C69   C117  1.610436 S    
C242  H119  1.073486 S    
O66   C46   1.269623 A    
O28   C20   1.269825 A    
C232  C233  1.397159 A    
O29   C21   1.269650 A    
O76   C20   1.269863 A    
C74   C213  1.573223 S    
C212  H94   1.080229 S    
O32   C24   1.269825 A    
O17   C9    1.274445 A    
C213  C218  1.417587 A    
C80   N16   1.495874 S    
O88   C32   1.269881 A    
Zn17  O89   1.912696 S    
C144  H49   1.114755 S    
N15   O134  1.302215 A    
Zn32  O104  1.912223 S    
C223  H103  1.082632 S    
C199  C200  1.398148 A    
C79   C183  1.577865 S    
C194  H79   1.072082 S    
Zn21  O93   1.912696 S    
C140  H37   1.109303 S    
C39   C60   1.423641 S    
N2    O107  1.303783 A    
C54   C62   1.199041 T    
Zn23  O95   1.912481 S    
C210  H92   1.082433 S    
C77   C80   1.654989 S    
C247  C248  1.398331 A    
C70   C71   1.654599 S    
C73   C121  1.610306 S    
O92   C4    1.274752 A    
C75   C207  1.578051 S    
Zn8   O10   1.912984 S    
C187  C188  1.397224 A    
Zn13  O85   1.918999 S    
C132  H61   1.114713 S    
C185  C186  1.389892 A    
C30   C172  1.424406 S    
C224  H104  1.071880 S    
C236  H114  1.080229 S    
C129  H64   1.113954 S    
O47   C33   1.269475 A    
Zn27  O51   1.918303 S    
C261  C266  1.417584 A    
C139  H38   1.109254 S    
C195  C200  1.422083 A    
C88   H8    1.114325 S    
C235  H113  1.082587 S    
O53   C39   1.269597 A    
Zn5   O77   1.918999 S    
C233  H111  1.082552 S    
O103  C15   1.274161 A    
Zn10  O72   1.918480 S    
O94   C6    1.273778 A    
C94   C95   1.547294 S    
O68   C48   1.269735 A    
C120  C137  1.557421 S    
C27   C173  1.424480 S    
C192  H77   1.082310 S    
Zn20  O4    1.927282 S    
C18   C168  1.424406 S    
C142  H51   1.113955 S    
C38   C57   1.423728 S    
C142  C143  1.542942 S    
C109  C157  1.204347 T    
C196  C197  1.395470 A    
C200  H84   1.072061 S    
O52   C40   1.269837 A    
C198  H82   1.081948 S    
C110  C158  1.204353 T    
Zn12  O22   1.912984 S    
C189  C190  1.421951 A    
Zn17  O25   1.919351 S    
O102  C14   1.273803 A    
C134  H59   1.113959 S    
C83   C115  1.555980 S    
C216  C217  1.390201 A    
O51   C39   1.269506 A    
Zn27  O99   1.912481 S    
C254  H129  1.080235 S    
C239  H116  1.082662 S    
Zn25  O97   1.912696 S    
C130  H63   1.114032 S    
C25   C175  1.424408 S    
Zn1   O1    1.927041 S    
C186  C187  1.390388 A    
N3    O110  1.302275 A    
Zn4   O14   1.912984 S    
C136  H57   1.114768 S    
C190  H75   1.071682 S    
C98   C146  1.204947 T    
C55   C63   1.199091 T    
C181  C182  1.397337 A    
C257  H131  1.082557 S    
O38   C30   1.269521 A    
C91   H11   1.114322 S    
Zn22  O94   1.912454 S    
C228  H107  1.082425 S    
C244  C245  1.396648 A    
Zn7   O57   1.918307 S    
Zn20  O44   1.918393 S    
C253  C254  1.397261 A    
C76   N12   1.496027 S    
N3    O109  1.301541 A    
C7    C112  1.431735 S    
Zn25  O5    1.926350 S    
N6    O116  1.302375 A    
C79   N15   1.496464 S    
C81   H1    1.113845 S    
Zn24  O48   1.918393 S    
C21   C163  1.424408 S    
Zn27  O7    1.926877 S    
C255  C256  1.418021 A    
Zn23  O1    1.926877 S    
C92   H12   1.114323 S    
C265  C266  1.396630 A    
O11   C3    1.272222 A    
Zn9   O23   1.912954 S    
O57   C41   1.269909 A    
C123  C150  1.478474 S    
O74   C18   1.269612 A    
C239  C240  1.391085 A    
C66   N2    1.496778 S    
C209  H91   1.082561 S    
Zn11  O21   1.912726 S    
Zn9   O71   1.918480 S    
C77   C125  1.609723 S    
Zn18  O42   1.918566 S    
C252  H127  1.082437 S    
Zn6   O78   1.919293 S    
C79   C127  1.605698 S    
C70   C118  1.610555 S    
C14   C101  1.431538 S    
C138  C139  1.542280 S    
C127  C130  1.557307 S    
C206  H89   1.080227 S    
N5    O114  1.302461 A    
C186  H72   1.082432 S    
C84   H4    1.114320 S    
N7    O118  1.302268 A    
Zn13  O7    1.927041 S    
N12   O127  1.301537 A    
C205  H88   1.082576 S    
C271  H143  1.082689 S    
O100  C12   1.273424 A    
C111  C159  1.204763 T    
Zn25  O33   1.919351 S    
C82   H2    1.113855 S    
C84   C116  1.555977 S    
C257  C258  1.390491 A    
C65   C113  1.610264 S    
C203  C204  1.390484 A    
O27   C19   1.269906 A    
C78   C79   1.653719 S    
C183  C184  1.418814 A    
Zn3   O75   1.919084 S    
C232  H110  1.070461 S    
C86   H6    1.113833 S    
C32   C170  1.424485 S    
C134  H43   1.106468 S    
O59   C43   1.270012 A    
C85   C117  1.557091 S    
Zn12  O70   1.918217 S    
C250  C251  1.397140 A    
O35   C27   1.269877 A    
Zn22  O30   1.919057 S    
C81   C113  1.557193 S    
C227  C228  1.390489 A    
O19   C11   1.275189 A    
C241  C242  1.396706 A    
C137  C140  1.542791 S    
Zn29  O7    1.926350 S    
Zn9   O5    1.927041 S    
C225  C226  1.417999 A    
C86   H22   1.100751 S    
Zn30  O8    1.926936 S    
C140  H53   1.114633 S    
C92   C124  1.555964 S    
O62   C44   1.269584 A    
C269  H141  1.082468 S    
Zn11  O7    1.927388 S    
Zn18  O2    1.926936 S    
C177  C178  1.418246 A    
C71   N7    1.496015 S    
C199  H83   1.082587 S    
C87   C119  1.556040 S    
N10   O124  1.302401 A    
C88   C120  1.555910 S    
C214  H95   1.071882 S    
C90   C91   1.545260 S    
Zn32  O6    1.927282 S    
C77   C195  1.572347 S    
O43   C35   1.269524 A    
C238  H115  1.071969 S    
C65   C68   1.653981 S    
C3    C108  1.431808 S    
Zn30  O54   1.918566 S    
C75   N11   1.496032 S    
C132  H45   1.109156 S    
C68   N4    1.496033 S    
Zn10  O24   1.913195 S    
C112  C160  1.204755 T    
Zn14  O86   1.919293 S    
C169  C170  1.199549 T    
C256  C257  1.397135 A    
C69   C72   1.654235 S    
C129  H48   1.106564 S    
C134  C135  1.542935 S    
C207  C208  1.418027 A    
C128  C145  1.478563 S    
C51   C59   1.199089 T    
O67   C47   1.270037 A    
O84   C28   1.269894 A    
C49   C57   1.199089 T    
C72   C225  1.577908 S    
C47   C55   1.423697 S    
C229  H108  1.082558 S    
O65   C45   1.269940 A    
C203  H86   1.082561 S    
C76   C201  1.578056 S    
C91   H27   1.107911 S    
C106  C154  1.204443 T    
C161  C162  1.199549 T    
O70   C48   1.269561 A    
Zn19  O43   1.918303 S    
C131  H62   1.114793 S    
C89   H25   1.100665 S    
N11   O125  1.301537 A    
C94   C126  1.557647 S    
C173  C174  1.199546 T    
C265  H138  1.082492 S    
C82   C83   1.545248 S    
C220  H100  1.073441 S    
Zn31  O39   1.919346 S    
C90   C122  1.557180 S    
C180  H67   1.082423 S    
O12   C4    1.271961 A    
O54   C40   1.269890 A    
C74   C75   1.653992 S    
C86   C87   1.545377 S    
O42   C34   1.269912 A    
Zn14  O8    1.926458 S    
C210  C211  1.390537 A    
C87   H23   1.107908 S    
C259  C260  1.397260 A    
C52   C60   1.199037 T    
N9    O121  1.303776 A    
C130  C131  1.541202 S    
Zn21  O45   1.918566 S    
C67   C255  1.578043 S    
C120  C153  1.478581 S    
C130  H47   1.106410 S    
O64   C42   1.269720 A    
O41   C33   1.269619 A    
C68   C116  1.605583 S    
Zn16  O6    1.926980 S    
C33   C62   1.423638 S    
