data_mof_unit_pretest_459.cif
_audit_creation_date              2012-12-10T19:15:12-0500
_audit_creation_method            fapswitch 2.2
_symmetry_space_group_name_H-M    P1
_symmetry_Int_Tables_number       1
_space_group_crystal_system       triclinic
_cell_length_a                    10.625177
_cell_length_b                    9.699187
_cell_length_c                    23.450197
_cell_angle_alpha                 90.297212
_cell_angle_beta                  90.668714
_cell_angle_gamma                 89.64107
_cell_volume                      2416.43000141

loop_
_atom_site_label
_atom_site_type_symbol
_atom_type_description
_atom_site_fract_x
_atom_site_fract_y
_atom_site_fract_z
_atom_type_partial_charge
C1    C     C_R   0.258150 0.500543 0.503158 0.953487
C2    C     C_R   0.268968 0.451147 0.970784 -0.022172
C3    C     C_R   0.273794 0.449655 0.030111 -0.196488
C4    C     C_R   0.386860 0.472983 0.059698 -0.016229
C5    C     C_R   0.498470 0.498289 0.029769 -0.026146
C6    C     C_R   0.613093 0.522559 0.059853 -0.074749
C7    C     C_R   0.724651 0.545959 0.028654 -0.022720
C8    C     C_R   0.720137 0.545850 0.969312 -0.189671
C9    C     C_R   0.390428 0.471901 0.119077 0.489872
C10   C     C_R   0.610375 0.522224 0.119958 0.567247
C11   C     C_R   0.503403 0.372478 0.237892 -0.005427
C12   C     C_R   0.500674 0.499663 0.389248 0.937834
C13   C     C_R   0.503083 0.373369 0.297161 -0.232789
C14   C     C_R   0.501412 0.498921 0.327078 -0.132488
C15   C     C_R   0.501454 0.623868 0.297298 -0.269791
C16   C     C_R   0.498021 0.624212 0.237996 0.554417
C17   C     C_R   0.500357 0.497982 0.208292 0.151356
C18   C     C_R   0.484253 0.627798 0.761734 0.050356
C19   C     C_R   0.487612 0.626675 0.702486 -0.248571
C20   C     C_R   0.498137 0.501210 0.672782 -0.041640
C21   C     C_R   0.505953 0.376665 0.702789 -0.251584
C22   C     C_R   0.503147 0.377615 0.761875 -0.120958
C23   C     C_R   0.742423 0.499711 0.501818 0.889420
C24   C     C_R   0.492595 0.502604 0.791312 0.286302
C25   C     C_3   0.070888 0.640933 0.529072 0.397024
C26   C     C_3   0.073773 0.377646 0.540191 0.383714
C27   C     C_3   0.927088 0.632598 0.532208 -0.497879
C28   C     C_3   0.929377 0.374983 0.537171 -0.480814
C29   C     C_3   0.074996 0.485410 0.441636 -0.647327
C30   C     C_3   0.121828 0.501526 0.504248 -0.013842
C31   C     C_3   0.879128 0.499430 0.501718 -0.015873
C32   C     C_3   0.929334 0.491239 0.438908 0.013647
C33   C     C_3   0.373181 0.082641 0.483146 -0.071523
C34   C     C_3   0.372718 0.918723 0.484329 -0.081141
C35   C     C_3   0.593144 0.080032 0.458207 -0.239278
C36   C     C_3   0.591197 0.917748 0.457316 -0.240593
C37   C     C_3   0.533332 0.081724 0.555803 -0.278055
C38   C     C_3   0.536012 0.919288 0.555472 -0.272899
C39   C     C_R   0.499904 0.500333 0.610687 0.915117
C40   C     C_R   0.603555 0.523243 0.880318 0.524117
C41   C     C_R   0.382706 0.477682 0.879491 0.508090
C42   C     C_R   0.380334 0.475518 0.939588 -0.056326
C43   C     C_R   0.495150 0.498892 0.969664 -0.025095
C44   C     C_R   0.607018 0.522896 0.939718 -0.019866
H1    H     H_    0.481939 0.723502 0.679735 0.146504
H2    H     H_    0.514065 0.278701 0.680718 0.157612
H3    H     H_    0.509631 0.281387 0.784978 0.151160
H4    H     H_    0.095965 0.724067 0.498475 0.061103
H5    H     H_    0.109177 0.279931 0.520238 0.042417
H6    H     H_    0.895973 0.631242 0.577383 0.200862
H7    H     H_    0.889518 0.378295 0.580902 0.199859
H8    H     H_    0.886905 0.727685 0.512607 0.147890
H9    H     H_    0.898893 0.275518 0.517740 0.146727
H10   H     H_    0.117195 0.567329 0.414803 0.204238
H11   H     H_    0.111387 0.386048 0.424047 0.208677
H12   H     H_    0.187909 0.430520 0.053284 0.200166
H13   H     H_    0.304551 0.118751 0.515458 0.083558
H14   H     H_    0.307143 0.887274 0.518293 0.109394
H15   H     H_    0.574954 0.119736 0.414507 0.165252
H16   H     H_    0.568362 0.880808 0.413492 0.164976
H17   H     H_    0.626672 0.121684 0.569846 0.157184
H18   H     H_    0.631628 0.881736 0.567843 0.153979
H19   H     H_    0.464471 0.118444 0.587949 0.147186
H20   H     H_    0.471294 0.880936 0.588547 0.150271
H21   H     H_    0.689228 0.115673 0.470185 0.160800
H22   H     H_    0.687217 0.877640 0.467220 0.160447
H23   H     H_    0.806186 0.564061 0.946133 0.198112
H24   H     H_    0.505325 0.276175 0.319787 0.176360
H25   H     H_    0.503810 0.721601 0.319837 0.186125
N1    N     N_R   0.492841 0.501365 0.851970 -0.357396
N2    N     N_R   0.500380 0.497784 0.147514 -0.345147
N3    N     N_3   0.499750 0.138610 0.498760 -0.059143
N4    N     N_3   0.499750 0.861390 0.498760 -0.059386
O1    O     O_R   0.314910 0.616040 0.499990 -0.619146
O2    O     O_R   0.314910 0.383960 0.499990 -0.648474
O3    O     O_R   0.500080 0.616070 0.416130 -0.623317
O4    O     O_R   0.500080 0.383930 0.416130 -0.619303
O5    O     O_R   0.685320 0.616040 0.499970 -0.634805
O6    O     O_R   0.685320 0.383960 0.499970 -0.632456
O7    O     O_R   0.500150 0.616010 0.583820 -0.629553
O8    O     O_R   0.500150 0.383990 0.583820 -0.639118
O9    O     O_2   0.709871 0.545189 0.850776 -0.546235
O10   O     O_2   0.276964 0.456755 0.848334 -0.548644
O11   O     O_2   0.284799 0.445752 0.148529 -0.561094
O12   O     O_2   0.715737 0.545417 0.151089 -0.522505
Zn1   Zn    Zn3+2 0.500150 0.654960 0.499970 0.936002
Zn2   Zn    Zn3+2 0.500150 0.345040 0.499970 0.924433
C45   C     C_1   0.147390 0.427273 0.944279 0.282782
N5    N     N_1   0.049821 0.408148 0.923336 -0.158220
O13   O     O_3   0.125395 0.667429 0.583676 -0.544506
C46   C     C_3   0.102547 0.804957 0.601517 0.104840
H26   H     H_    0.003160 0.818078 0.614840 0.139437
H27   H     H_    0.122495 0.881136 0.567570 0.083207
C47   C     C_3   0.186711 0.837293 0.652625 -0.792322
H28   H     H_    0.286855 0.827851 0.640443 0.234858
H29   H     H_    0.168406 0.944118 0.667674 0.191212
H30   H     H_    0.167709 0.764446 0.687844 0.279625
O14   O     O_3   0.114652 0.392890 0.597762 -0.549280
C48   C     C_3   0.144106 0.263955 0.622312 0.044841
H31   H     H_    0.232759 0.222583 0.603967 0.139005
H32   H     H_    0.066720 0.188450 0.615336 0.117551
C49   C     C_3   0.163701 0.283305 0.686187 -0.706632
H33   H     H_    0.074296 0.317248 0.706087 0.263006
H34   H     H_    0.194735 0.184718 0.705811 0.193094
H35   H     H_    0.236589 0.362625 0.694472 0.275152
C50   C     C_1   0.887631 0.612532 0.405369 0.173656
N6    N     N_1   0.854870 0.707348 0.379215 -0.193231
C51   C     C_1   0.881302 0.367930 0.408362 0.179850
N7    N     N_1   0.843692 0.271618 0.384485 -0.204878
C52   C     C_1   0.326914 0.141275 0.428526 0.201019
N8    N     N_1   0.290189 0.186337 0.385819 -0.213134
C53   C     C_1   0.321116 0.855082 0.431636 0.204134
N9    N     N_1   0.279734 0.805526 0.390601 -0.233339
C54   C     C_1   0.846225 0.569865 0.055162 0.287481
N10   N     N_1   0.943799 0.588999 0.076100 -0.158216
C55   C     C_1   0.509634 0.242596 0.207726 0.229156
N11   N     N_1   0.514928 0.138762 0.183327 -0.176532
O15   O     O_3   0.505273 0.748089 0.209268 -0.600917
C56   C     C_3   0.383105 0.794058 0.193543 0.084601
H36   H     H_    0.318692 0.709074 0.180560 0.165070
H37   H     H_    0.392307 0.861432 0.155698 0.193033
C57   C     C_3   0.323667 0.879002 0.241234 -0.808010
H38   H     H_    0.294343 0.810211 0.276191 0.252532
H39   H     H_    0.391567 0.955951 0.258219 0.270591
H40   H     H_    0.238930 0.933830 0.224626 0.239746
C58   C     C_1   0.472139 0.757414 0.791701 0.176525
N12   N     N_1   0.462391 0.861348 0.815752 -0.192426

loop_
_geom_bond_atom_site_label_1
_geom_bond_atom_site_label_2
_ccdc_geom_bond_type
C10   O12   S    
C58   N12   T    
C34   C53   S    
C41   C42   A    
C35   C36   S    
O6    Zn2   S    
C54   N10   T    
C24   N1    S    
C7    C8    A    
C51   N7    T    
C25   O13   S    
C37   C38   S    
C40   N1    A    
C18   C24   A    
C1    O1    A    
C7    C54   S    
C29   C32   S    
C45   N5    T    
C5    C6    A    
C28   H7    S    
C36   H22   S    
C29   H10   S    
C35   H21   S    
C15   C16   A    
C41   O10   S    
C55   N11   T    
C49   H35   S    
C35   H15   S    
C18   C19   A    
C52   N8    T    
O7    Zn1   S    
C33   N3    S    
O15   C56   S    
C19   C20   A    
C16   C17   A    
C2    C45   S    
C27   H6    S    
C10   N2    A    
O5    Zn1   S    
C22   H3    S    
C5    C43   A    
C32   C50   S    
C21   C22   A    
C49   H33   S    
C53   N9    T    
C37   H19   S    
C38   H20   S    
C56   H37   S    
C15   H25   S    
C27   C31   S    
C1    O2    A    
C40   O9    S    
C39   O8    A    
C26   H5    S    
C46   H26   S    
C20   C39   S    
C29   H11   S    
C47   H30   S    
C23   C31   S    
C49   H34   S    
C43   C44   A    
C29   C30   S    
C16   O15   S    
C46   H27   S    
C3    H12   S    
C31   C32   S    
C28   H9    S    
C12   O4    A    
C33   C34   S    
C50   N6    T    
O1    Zn1   S    
C47   H29   S    
C11   C55   S    
C25   H4    S    
O8    Zn2   S    
C26   O14   S    
O2    Zn2   S    
C48   H32   S    
C12   C14   S    
C35   N3    S    
C17   N2    S    
C12   O3    A    
C22   C24   A    
C9    O11   S    
C9    N2    A    
C42   C43   A    
C57   H39   S    
C3    C4    A    
O3    Zn1   S    
N3    Zn2   S    
C27   H8    S    
C21   H2    S    
C56   C57   S    
C25   C30   S    
C11   C17   A    
C33   H13   S    
C28   C31   S    
C8    C44   A    
C4    C5    A    
C36   H16   S    
C6    C10   A    
C37   H17   S    
C56   H36   S    
C19   H1    S    
C26   C30   S    
C6    C7    A    
C25   C27   S    
C26   C28   S    
C48   H31   S    
C39   O7    A    
C57   H40   S    
C2    C3    A    
C57   H38   S    
C18   C58   S    
C46   C47   S    
C11   C13   A    
O13   C46   S    
C2    C42   A    
C1    C30   S    
C23   O5    A    
C47   H28   S    
N4    Zn1   S    
C36   N4    S    
C34   N4    S    
C40   C44   A    
C48   C49   S    
C20   C21   A    
O4    Zn2   S    
C8    H23   S    
O14   C48   S    
C32   C51   S    
C37   N3    S    
C34   H14   S    
C14   C15   A    
C33   C52   S    
C23   O6    A    
C4    C9    A    
C13   C14   A    
C13   H24   S    
C41   N1    A    
C38   H18   S    
C38   N4    S    
