data_mof_unit_pretest_352.cif
_audit_creation_date              2012-12-10T20:51:00-0500
_audit_creation_method            fapswitch 2.2
_symmetry_space_group_name_H-M    P1
_symmetry_Int_Tables_number       1
_space_group_crystal_system       triclinic
_cell_length_a                    18.420538
_cell_length_b                    18.462776
_cell_length_c                    18.448966
_cell_angle_alpha                 120.11313
_cell_angle_beta                  89.970864
_cell_angle_gamma                 120.097627
_cell_volume                      4423.62851641

loop_
_atom_site_label
_atom_site_type_symbol
_atom_type_description
_atom_site_fract_x
_atom_site_fract_y
_atom_site_fract_z
_atom_type_partial_charge
C1    C     C_R   0.359567 0.500406 0.360558 0.537784
C2    C     C_2   0.303753 0.501897 0.693544 -0.077595
C3    C     C_R   0.587982 0.784974 0.376719 -0.077177
C4    C     C_R   0.638454 0.498490 0.639458 0.540215
C5    C     C_R   0.496787 0.728960 0.365237 0.321357
C6    C     C_R   0.438348 0.627385 0.287598 0.042031
C7    C     C_R   0.472156 0.585608 0.222617 -0.135560
C8    C     C_R   0.562760 0.642844 0.234564 -0.114159
C9    C     C_R   0.620652 0.742078 0.311721 -0.136770
C10   C     C_R   0.285260 0.559342 0.218412 -0.101546
C11   C     C_R   0.192956 0.498872 0.198491 0.018202
C12   C     C_2   0.306122 0.113440 0.326353 0.029110
C13   C     C_R   0.156078 0.439847 0.233137 -0.036467
C14   C     C_R   0.212401 0.442820 0.286167 -0.144889
C15   C     C_R   0.304612 0.502758 0.305625 0.039310
C16   C     C_R   0.641294 0.501714 0.362777 0.493479
C17   C     C_R   0.341699 0.562961 0.272038 0.015263
C18   C     C_R   0.023336 0.412740 0.281169 -0.077584
C19   C     C_R   0.932288 0.351572 0.266395 -0.117598
C20   C     C_R   0.877069 0.252710 0.187658 -0.090902
C21   C     C_R   0.913027 0.214449 0.123901 -0.089898
C22   C     C_R   0.004245 0.275100 0.138765 -0.059176
C23   C     C_2   0.765014 0.548871 0.838940 -0.199710
C24   C     C_R   0.059690 0.375031 0.217181 0.060816
C25   C     C_R   0.550738 0.819539 0.886708 -0.078604
C26   C     C_R   0.581375 0.859921 0.837095 0.255498
C27   C     C_R   0.670111 0.899189 0.837406 0.026438
C28   C     C_R   0.360773 0.500428 0.639379 0.555029
C29   C     C_R   0.725651 0.896861 0.887031 -0.201852
C30   C     C_R   0.694250 0.856410 0.935885 -0.108606
C31   C     C_R   0.607063 0.818629 0.936772 0.257189
C32   C     C_R   0.763627 0.054908 0.842578 -0.110253
C33   C     C_R   0.804673 0.108308 0.805135 0.019557
C34   C     C_2   0.793500 0.488914 0.806215 -0.098217
C35   C     C_R   0.791340 0.052116 0.712595 -0.025572
C36   C     C_R   0.734838 0.944955 0.660113 -0.130787
C37   C     C_R   0.693877 0.891524 0.697616 0.051517
C38   C     C_R   0.708694 0.947746 0.790489 0.032977
C39   C     C_R   0.790370 0.095021 0.603916 -0.085935
C40   C     C_R   0.638951 0.778269 0.639088 0.545895
C41   C     C_R   0.834852 0.141002 0.561883 -0.112438
C42   C     C_R   0.927229 0.192794 0.583543 -0.091101
C43   C     C_R   0.975233 0.198245 0.646946 -0.084433
C44   C     C_R   0.931023 0.152369 0.689123 -0.062784
C45   C     C_2   0.696427 0.532597 0.780928 -0.030274
C46   C     C_R   0.838342 0.101283 0.668433 0.050954
C47   C     C_R   0.801925 0.462117 0.500245 -0.093942
C48   C     C_R   0.794862 0.495705 0.449217 -0.062732
C49   C     C_R   0.754930 0.426250 0.356284 0.054180
C50   C     C_R   0.723319 0.323249 0.315099 -0.096331
C51   C     C_R   0.730458 0.289971 0.366411 -0.110747
C52   C     C_R   0.360733 0.222918 0.364759 0.533996
C53   C     C_R   0.769572 0.359298 0.458919 -0.091897
C54   C     C_R   0.797048 0.458943 0.244060 -0.150012
C55   C     C_R   0.800603 0.499795 0.196479 0.023414
C56   C     C_2   0.694148 0.500632 0.696435 -0.064137
C57   C     C_R   0.753910 0.544312 0.206660 -0.031552
C58   C     C_R   0.704055 0.545261 0.262907 -0.154421
C59   C     C_R   0.699766 0.503635 0.309651 0.023172
C60   C     C_R   0.748634 0.462051 0.302009 -0.027929
C61   C     C_R   0.794426 0.695061 0.206844 -0.093694
C62   C     C_R   0.787071 0.736743 0.163985 -0.099954
C63   C     C_R   0.737233 0.672520 0.073732 -0.095398
C64   C     C_2   0.279225 0.944032 0.221996 -0.168783
C65   C     C_R   0.695106 0.566480 0.026007 -0.112978
C66   C     C_R   0.702925 0.524554 0.068460 -0.066879
C67   C     C_2   0.279594 0.557832 0.838530 -0.129145
C68   C     C_R   0.752625 0.588746 0.159196 0.055298
C69   C     C_R   0.136353 0.499285 0.863034 0.510934
C70   C     C_R   0.856755 0.499119 0.140798 0.505711
C71   C     C_R   0.856187 0.498909 0.863225 0.521491
C72   C     C_R   0.137757 0.499758 0.142258 0.504975
C73   C     C_R   0.858901 0.221657 0.863551 0.503311
C74   C     C_R   0.136400 0.776866 0.138719 0.515434
C75   C     C_2   0.190760 0.887244 0.185892 -0.109201
C76   C     C_2   0.331944 0.055851 0.270839 -0.184723
C77   C     C_2   0.232290 0.073372 0.360055 0.223095
C78   C     C_2   0.190269 0.494982 0.805673 -0.099815
C79   C     C_2   0.632274 0.551844 0.820023 0.279337
C80   C     C_2   0.336047 0.555131 0.782134 -0.123923
H1    H     H_    0.314135 0.908446 0.211727 0.184091
H2    H     H_    0.183381 0.397338 0.312224 0.149284
H3    H     H_    0.156817 0.922788 0.190888 0.121369
H4    H     H_    0.065458 0.489388 0.342198 0.119102
H5    H     H_    0.904622 0.380965 0.316002 0.115763
H6    H     H_    0.806523 0.205695 0.176195 0.117667
H7    H     H_    0.870256 0.137803 0.063054 0.103809
H8    H     H_    0.031556 0.244873 0.089060 0.097600
H9    H     H_    0.483047 0.789382 0.886943 0.170573
H10   H     H_    0.793828 0.927110 0.888211 0.113800
H11   H     H_    0.738320 0.855526 0.973737 0.146674
H12   H     H_    0.153914 0.436804 0.735274 0.099204
H13   H     H_    0.393358 0.091569 0.257872 0.159415
H14   H     H_    0.773485 0.096813 0.913194 0.141445
H15   H     H_    0.725464 0.902990 0.589614 0.132993
H16   H     H_    0.718839 0.055285 0.586784 0.155852
H17   H     H_    0.797717 0.136522 0.512549 0.119955
H18   H     H_    0.961582 0.228469 0.551048 0.117005
H19   H     H_    0.046689 0.237989 0.663403 0.109688
H20   H     H_    0.968828 0.156947 0.738091 0.091711
H21   H     H_    0.775056 0.333439 0.498554 0.113061
H22   H     H_    0.832636 0.515870 0.571808 0.098555
H23   H     H_    0.406964 0.599736 0.815387 0.211495
H24   H     H_    0.820419 0.575625 0.481924 0.092094
H25   H     H_    0.693072 0.268917 0.243465 0.115322
H26   H     H_    0.705823 0.210482 0.334437 0.127439
H27   H     H_    0.834825 0.427610 0.238640 0.139826
H28   H     H_    0.666715 0.577174 0.268649 0.141010
H29   H     H_    0.831720 0.745266 0.277276 0.109592
H30   H     H_    0.819156 0.818679 0.200960 0.130050
H31   H     H_    0.731098 0.705198 0.041203 0.132081
H32   H     H_    0.655751 0.516544 0.956322 0.120003
H33   H     H_    0.669000 0.442228 0.031307 0.111188
H34   H     H_    0.233856 0.458315 0.657856 0.107355
H35   H     H_    0.788734 0.607122 0.909962 0.143097
H36   H     H_    0.766526 0.426224 0.736202 0.114643
H37   H     H_    0.740462 0.483844 0.669905 0.069336
H38   H     H_    0.313607 0.613004 0.909935 0.200686
H39   H     H_    0.345009 0.795123 0.449631 0.371981
H40   H     H_    0.513443 0.626270 0.982686 0.367261
H41   H     H_    0.521563 0.949801 0.727715 0.392289
H42   H     H_    0.205581 0.001350 0.351886 0.114867
H43   H     H_    0.654603 0.612512 0.889768 0.116471
H44   H     H_    0.690985 0.785996 0.321097 0.120037
H45   H     H_    0.634146 0.862146 0.435961 0.131649
H46   H     H_    0.428137 0.508308 0.162694 0.111502
H47   H     H_    0.588162 0.610021 0.184059 0.132550
H48   H     H_    0.314278 0.604627 0.192184 0.162970
O1    O     O_3   0.500000 0.500000 0.500000 -0.462001
O2    O     O_R   0.053310 0.439870 0.118130 -0.538116
O3    O     O_R   0.881750 0.270770 0.828220 -0.528534
O4    O     O_R   0.323160 0.439910 0.385120 -0.550338
O5    O     O_R   0.173180 0.729110 0.116590 -0.527784
O6    O     O_R   0.882410 0.270770 0.949030 -0.549806
O7    O     O_R   0.051730 0.729120 0.116590 -0.539474
O8    O     O_R   0.880830 0.560020 0.947500 -0.535528
O9    O     O_R   0.174110 0.560030 0.117490 -0.541430
O10   O     O_R   0.051730 0.439850 0.827330 -0.541669
O11   O     O_R   0.882410 0.439870 0.118130 -0.543712
O12   O     O_R   0.615510 0.439910 0.385120 -0.534823
O13   O     O_R   0.616440 0.439920 0.555110 -0.542624
O14   O     O_R   0.614860 0.560070 0.384480 -0.562562
O15   O     O_R   0.445540 0.560090 0.675280 -0.506733
O16   O     O_R   0.614860 0.729170 0.553580 -0.529913
O17   O     O_R   0.324090 0.270830 0.386020 -0.493332
O18   O     O_R   0.615510 0.729180 0.674390 -0.538270
O19   O     O_R   0.445540 0.270830 0.386020 -0.554279
O20   O     O_2   0.430920 0.735583 0.495885 -0.246589
O21   O     O_2   0.529789 0.899416 0.514953 -0.304567
O22   O     O_3   0.369284 0.772289 0.401428 -0.529430
O23   O     O_R   0.324090 0.439920 0.555110 -0.522507
O24   O     O_2   0.644990 0.829288 0.083219 -0.300470
O25   O     O_2   0.496756 0.783742 0.028460 -0.292323
O26   O     O_3   0.528285 0.646275 0.941151 -0.535740
O27   O     O_2   0.468332 0.766919 0.680172 -0.258647
O28   O     O_2   0.432590 0.851081 0.811884 -0.273273
O29   O     O_3   0.560488 0.966364 0.778585 -0.516018
O30   O     O_2   0.201906 0.121785 0.399541 -0.479402
O31   O     O_2   0.553403 0.496720 0.776308 -0.448268
O32   O     O_R   0.443960 0.560080 0.384480 -0.520589
O33   O     O_R   0.616440 0.560090 0.675280 -0.508645
O34   O     O_3   0.997270 0.499940 0.002610 -0.448259
O35   O     O_R   0.173180 0.560020 0.947500 -0.532569
O36   O     O_R   0.881750 0.560030 0.117490 -0.532282
O37   O     O_R   0.880830 0.439850 0.827330 -0.538121
S1    S     S_3+6 0.457984 0.786819 0.448631 0.016581
S2    S     S_3+6 0.569007 0.771443 0.001486 -0.028926
S3    S     S_3+6 0.506965 0.858749 0.775062 0.026079
Zn1   Zn    Zn3+2 0.543620 0.414150 0.457300 0.945904
Zn2   Zn    Zn3+2 0.542680 0.585840 0.456390 0.967020
Zn3   Zn    Zn3+2 0.543620 0.585850 0.629000 1.011558
Zn4   Zn    Zn3+2 0.370090 0.414160 0.457300 1.004956
Zn5   Zn    Zn3+2 0.953650 0.585790 0.045310 0.951611
Zn6   Zn    Zn3+2 0.953650 0.414090 0.873610 0.950453
Zn7   Zn    Zn3+2 0.954590 0.414100 0.046220 0.939085
Zn8   Zn    Zn3+2 0.127180 0.585790 0.045310 0.960005

loop_
_geom_bond_atom_site_label_1
_geom_bond_atom_site_label_2
_ccdc_geom_bond_type
C25   C31   A    
C66   C68   A    
C63   C65   A    
O12   Zn1   S    
C23   C45   S    
C66   H33   S    
C27   C29   A    
O20   S1    D    
C56   H37   S    
O1    Zn4   S    
C32   H14   S    
C35   C36   A    
C36   H15   S    
C1    O4    A    
C61   H29   S    
C21   H7    S    
C7    C8    A    
C39   C41   A    
O34   Zn5   S    
C54   C60   A    
C26   S3    S    
C26   C27   A    
C37   C38   A    
C49   C60   S    
C54   H27   S    
C18   C24   A    
O7    Zn5   S    
O1    Zn1   S    
C36   C37   A    
C43   H19   S    
C37   C40   S    
C42   H18   S    
C79   O31   D    
C30   C31   A    
O34   Zn8   S    
O28   S3    D    
C27   C38   S    
C34   H36   S    
C48   H24   S    
C74   O5    A    
O16   Zn2   S    
C11   C13   A    
C9    H44   S    
C18   C19   A    
C41   C42   A    
C77   H42   S    
C21   C22   A    
C54   C55   A    
O11   Zn7   S    
C19   C20   A    
C45   C56   D    
C53   H21   S    
C8    C9    A    
C20   H6    S    
O10   Zn6   S    
C50   H25   S    
C18   H4    S    
C1    C15   S    
C32   C38   A    
C29   C30   A    
C58   H28   S    
C77   O30   D    
O14   Zn2   S    
H39   O22   S    
O17   Zn4   S    
C59   C60   A    
C47   H22   S    
H41   O29   S    
C13   C14   A    
C4    C56   S    
C69   C78   S    
C16   O12   A    
C67   C78   D    
C10   H48   S    
O35   Zn8   S    
O29   S3    S    
O13   Zn1   S    
C29   H10   S    
C12   C52   S    
C44   C46   A    
C64   H1    S    
C73   O3    A    
C74   C75   S    
O21   S1    D    
C80   H23   S    
O1    Zn2   S    
C2    H34   S    
O9    Zn8   S    
O6    Zn7   S    
C71   O8    A    
C52   O17   A    
C11   C72   S    
O34   Zn7   S    
C3    C5    A    
O37   Zn6   S    
C79   H43   S    
O23   Zn4   S    
C13   C24   S    
C51   C53   A    
C16   C59   S    
C16   O14   A    
C43   C44   A    
C65   H32   S    
C62   C63   A    
C3    C9    A    
C76   H13   S    
C8    H47   S    
C47   C48   A    
C62   H30   S    
O27   S3    D    
C23   C34   D    
C74   O7    A    
H40   O26   S    
C50   C51   A    
C64   C76   S    
O36   Zn5   S    
C45   C79   S    
C28   O15   A    
C5    S1    S    
C73   O6    A    
C39   C46   A    
C33   C73   S    
C48   C49   A    
C31   S2    S    
C67   H38   S    
C49   C50   A    
C52   O19   A    
C22   H8    S    
C55   C57   A    
C12   C76   D    
C22   C24   A    
O26   S2    S    
C58   C59   A    
C42   C43   A    
C14   H2    S    
C57   C68   S    
C4    O13   A    
O24   S2    D    
C69   O10   A    
C15   C17   A    
C6    C17   S    
O8    Zn5   S    
C72   O9    A    
C14   C15   A    
O1    Zn3   S    
C1    O32   A    
C67   C80   S    
C69   O35   A    
C30   H11   S    
C19   H5    S    
C70   O36   A    
C3    H45   S    
C72   O2    A    
C6    C7    A    
O34   Zn6   S    
O2    Zn7   S    
O4    Zn4   S    
O3    Zn6   S    
C25   H9    S    
C40   O18   A    
C78   H12   S    
C32   C33   A    
C40   O16   A    
C25   C26   A    
O15   Zn3   S    
C44   H20   S    
C61   C68   A    
C75   H3    S    
C57   C58   A    
C5    C6    A    
C51   H26   S    
C47   C53   A    
C33   C35   A    
C64   C75   D    
C41   H17   S    
C7    H46   S    
C63   H31   S    
C61   C62   A    
O5    Zn8   S    
C39   H16   S    
C55   C70   S    
C2    C80   D    
C10   C11   A    
C23   H35   S    
O33   Zn3   S    
C70   O11   A    
C12   C77   S    
C20   C21   A    
C28   O23   A    
C65   C66   A    
C71   O37   A    
O32   Zn2   S    
C4    O33   A    
C2    C28   S    
C10   C17   A    
O18   Zn3   S    
C35   C46   S    
C34   C71   S    
O25   S2    D    
O19   Zn1   S    
O22   S1    S    
