data_mof_unit_pretest_1588.cif
_audit_creation_date              2013-03-05T16:36:30-0500
_audit_creation_method            fapswitch 2.2
_symmetry_space_group_name_H-M    P1
_symmetry_Int_Tables_number       1
_space_group_crystal_system       triclinic
_cell_length_a                    26.053211
_cell_length_b                    36.268225
_cell_length_c                    36.245226
_cell_angle_alpha                 90.006295
_cell_angle_beta                  89.934881
_cell_angle_gamma                 89.955644
_cell_volume                      34248.2162335

loop_
_atom_site_label
_atom_site_type_symbol
_atom_site_description
_atom_site_fract_x
_atom_site_fract_y
_atom_site_fract_z
_atom_type_partial_charge
Zn1   Zn    Zn3+2 0.793780 0.469480 0.719490 1.106633
Zn2   Zn    Zn3+2 0.793780 0.469480 0.280510 1.078401
Zn3   Zn    Zn3+2 0.206220 0.469480 0.719490 1.075055
Zn4   Zn    Zn3+2 0.206220 0.469480 0.280510 1.105682
Zn5   Zn    Zn3+2 0.293780 0.969480 0.719490 1.101185
Zn6   Zn    Zn3+2 0.293780 0.969480 0.280510 1.073634
Zn7   Zn    Zn3+2 0.706220 0.969480 0.719490 1.080259
Zn8   Zn    Zn3+2 0.706220 0.969480 0.280510 1.088707
Zn9   Zn    Zn3+2 0.293780 0.469480 0.219490 1.100319
Zn10  Zn    Zn3+2 0.293780 0.469480 0.780510 1.078575
Zn11  Zn    Zn3+2 0.706220 0.469480 0.219490 1.073201
Zn12  Zn    Zn3+2 0.706220 0.469480 0.780510 1.088342
Zn13  Zn    Zn3+2 0.793780 0.969480 0.219490 1.106407
Zn14  Zn    Zn3+2 0.793780 0.969480 0.780510 1.073567
Zn15  Zn    Zn3+2 0.206220 0.969480 0.219490 1.080227
Zn16  Zn    Zn3+2 0.206220 0.969480 0.780510 1.093909
Zn17  Zn    Zn3+2 0.706220 0.530510 0.719480 1.108490
Zn18  Zn    Zn3+2 0.706220 0.530510 0.280520 1.088259
Zn19  Zn    Zn3+2 0.293780 0.530510 0.719480 1.079038
Zn20  Zn    Zn3+2 0.293780 0.530510 0.280520 1.098154
Zn21  Zn    Zn3+2 0.206220 0.030510 0.719480 1.106603
Zn22  Zn    Zn3+2 0.206220 0.030510 0.280520 1.090181
Zn23  Zn    Zn3+2 0.793780 0.030510 0.719480 1.081440
Zn24  Zn    Zn3+2 0.793780 0.030510 0.280520 1.094896
Zn25  Zn    Zn3+2 0.206220 0.530510 0.219480 1.098143
Zn26  Zn    Zn3+2 0.206220 0.530510 0.780520 1.091303
Zn27  Zn    Zn3+2 0.793780 0.530510 0.219480 1.088213
Zn28  Zn    Zn3+2 0.793780 0.530510 0.780520 1.093791
Zn29  Zn    Zn3+2 0.706220 0.030510 0.219480 1.107422
Zn30  Zn    Zn3+2 0.706220 0.030510 0.780520 1.089011
Zn31  Zn    Zn3+2 0.293780 0.030510 0.219480 1.080058
Zn32  Zn    Zn3+2 0.293780 0.030510 0.780520 1.095612
O1    O     O_3   0.750000 0.500000 0.750000 -0.558622
O2    O     O_3   0.750000 0.500000 0.250000 -0.550203
O3    O     O_3   0.250000 0.500000 0.750000 -0.547560
O4    O     O_3   0.250000 0.500000 0.250000 -0.558389
O5    O     O_3   0.250000 0.000000 0.750000 -0.558664
O6    O     O_3   0.250000 0.000000 0.250000 -0.547576
O7    O     O_3   0.750000 0.000000 0.750000 -0.547619
O8    O     O_3   0.750000 0.000000 0.250000 -0.558694
O9    O     O_R   0.633160 0.478640 0.771350 -0.587315
O10   O     O_R   0.633160 0.478640 0.228650 -0.621503
O11   O     O_R   0.366840 0.478640 0.771350 -0.625898
O12   O     O_R   0.366840 0.478640 0.228650 -0.564800
O13   O     O_R   0.133160 0.978640 0.771350 -0.588224
O14   O     O_R   0.133160 0.978640 0.228650 -0.622459
O15   O     O_R   0.866840 0.978640 0.771350 -0.625373
O16   O     O_R   0.866840 0.978640 0.228650 -0.565979
O17   O     O_R   0.133160 0.478640 0.271350 -0.565857
O18   O     O_R   0.133160 0.478640 0.728650 -0.622008
O19   O     O_R   0.866840 0.478640 0.271350 -0.622330
O20   O     O_R   0.866840 0.478640 0.728650 -0.565990
O21   O     O_R   0.633160 0.978640 0.271350 -0.587125
O22   O     O_R   0.633160 0.978640 0.728650 -0.622296
O23   O     O_R   0.366840 0.978640 0.271350 -0.625245
O24   O     O_R   0.366840 0.978640 0.728650 -0.564833
O25   O     O_R   0.719360 0.521340 0.668540 -0.602515
O26   O     O_R   0.719360 0.521340 0.331460 -0.605711
O27   O     O_R   0.280640 0.521340 0.668540 -0.603214
O28   O     O_R   0.280640 0.521340 0.331460 -0.601776
O29   O     O_R   0.219360 0.021340 0.668540 -0.602126
O30   O     O_R   0.219360 0.021340 0.331460 -0.604413
O31   O     O_R   0.780640 0.021340 0.668540 -0.602935
O32   O     O_R   0.780640 0.021340 0.331460 -0.599942
O33   O     O_R   0.219360 0.521340 0.168540 -0.600789
O34   O     O_R   0.219360 0.521340 0.831460 -0.605053
O35   O     O_R   0.780640 0.521340 0.168540 -0.604557
O36   O     O_R   0.780640 0.521340 0.831460 -0.600540
O37   O     O_R   0.719360 0.021340 0.168540 -0.602914
O38   O     O_R   0.719360 0.021340 0.831460 -0.605133
O39   O     O_R   0.280640 0.021340 0.168540 -0.603905
O40   O     O_R   0.280640 0.021340 0.831460 -0.600840
O41   O     O_R   0.719340 0.581460 0.728640 -0.607978
O42   O     O_R   0.719340 0.581460 0.271360 -0.612758
O43   O     O_R   0.280660 0.581460 0.728640 -0.620279
O44   O     O_R   0.280660 0.581460 0.271360 -0.617227
O45   O     O_R   0.219340 0.081460 0.728640 -0.609131
O46   O     O_R   0.219340 0.081460 0.271360 -0.609047
O47   O     O_R   0.780660 0.081460 0.728640 -0.618604
O48   O     O_R   0.780660 0.081460 0.271360 -0.617955
O49   O     O_R   0.219340 0.581460 0.228640 -0.615599
O50   O     O_R   0.219340 0.581460 0.771360 -0.609103
O51   O     O_R   0.780660 0.581460 0.228640 -0.610604
O52   O     O_R   0.780660 0.581460 0.771360 -0.619653
O53   O     O_R   0.719340 0.081460 0.228640 -0.609572
O54   O     O_R   0.719340 0.081460 0.771360 -0.610730
O55   O     O_R   0.280660 0.081460 0.228640 -0.620563
O56   O     O_R   0.280660 0.081460 0.771360 -0.618490
O57   O     O_R   0.719390 0.418540 0.771360 -0.617759
O58   O     O_R   0.719390 0.418540 0.228640 -0.606287
O59   O     O_R   0.280610 0.418540 0.771360 -0.600466
O60   O     O_R   0.280610 0.418540 0.228640 -0.617433
O61   O     O_R   0.219390 0.918540 0.771360 -0.609254
O62   O     O_R   0.219390 0.918540 0.228640 -0.597442
O63   O     O_R   0.780610 0.918540 0.771360 -0.608141
O64   O     O_R   0.780610 0.918540 0.228640 -0.608646
O65   O     O_R   0.219390 0.418540 0.271360 -0.608883
O66   O     O_R   0.219390 0.418540 0.728640 -0.605310
O67   O     O_R   0.780610 0.418540 0.271360 -0.598350
O68   O     O_R   0.780610 0.418540 0.728640 -0.608654
O69   O     O_R   0.719390 0.918540 0.271360 -0.617755
O70   O     O_R   0.719390 0.918540 0.728640 -0.597536
O71   O     O_R   0.280610 0.918540 0.271360 -0.608161
O72   O     O_R   0.280610 0.918540 0.728640 -0.617046
O73   O     O_R   0.780640 0.478630 0.668540 -0.603395
O74   O     O_R   0.780640 0.478630 0.331460 -0.610189
O75   O     O_R   0.219360 0.478630 0.668540 -0.612561
O76   O     O_R   0.219360 0.478630 0.331460 -0.602966
O77   O     O_R   0.280640 0.978630 0.668540 -0.605646
O78   O     O_R   0.280640 0.978630 0.331460 -0.611937
O79   O     O_R   0.719360 0.978630 0.668540 -0.610548
O80   O     O_R   0.719360 0.978630 0.331460 -0.609266
O81   O     O_R   0.280640 0.478630 0.168540 -0.606054
O82   O     O_R   0.280640 0.478630 0.831460 -0.609710
O83   O     O_R   0.719360 0.478630 0.168540 -0.612808
O84   O     O_R   0.719360 0.478630 0.831460 -0.609596
O85   O     O_R   0.780640 0.978630 0.168540 -0.603315
O86   O     O_R   0.780640 0.978630 0.831460 -0.611664
O87   O     O_R   0.219360 0.978630 0.168540 -0.610279
O88   O     O_R   0.219360 0.978630 0.831460 -0.607167
O89   O     O_R   0.633140 0.521350 0.728640 -0.580592
O90   O     O_R   0.633140 0.521350 0.271360 -0.574611
O91   O     O_R   0.366860 0.521350 0.728640 -0.590830
O92   O     O_R   0.366860 0.521350 0.271360 -0.602917
O93   O     O_R   0.133140 0.021350 0.728640 -0.580592
O94   O     O_R   0.133140 0.021350 0.271360 -0.575152
O95   O     O_R   0.866860 0.021350 0.728640 -0.590633
O96   O     O_R   0.866860 0.021350 0.271360 -0.602399
O97   O     O_R   0.133140 0.521350 0.228640 -0.603035
O98   O     O_R   0.133140 0.521350 0.771360 -0.574790
O99   O     O_R   0.866860 0.521350 0.228640 -0.574747
O100  O     O_R   0.866860 0.521350 0.771360 -0.602415
O101  O     O_R   0.633140 0.021350 0.228640 -0.580619
O102  O     O_R   0.633140 0.021350 0.771360 -0.575153
O103  O     O_R   0.366860 0.021350 0.228640 -0.590610
O104  O     O_R   0.366860 0.021350 0.771360 -0.602541
C1    C     C_R   0.608561 0.499014 0.749247 0.954319
C2    C     C_R   0.608632 0.499864 0.250178 0.877947
C3    C     C_R   0.391317 0.499551 0.749615 0.845037
C4    C     C_R   0.391324 0.498193 0.251520 0.936666
C5    C     C_R   0.108561 0.999015 0.749249 0.952670
C6    C     C_R   0.108632 0.999865 0.250176 0.875719
C7    C     C_R   0.891317 0.999550 0.749614 0.846064
C8    C     C_R   0.891324 0.998198 0.251513 0.935368
C9    C     C_R   0.108681 0.498209 0.248480 0.934632
C10   C     C_R   0.108632 0.499862 0.750179 0.876926
C11   C     C_R   0.891368 0.499857 0.249833 0.876103
C12   C     C_R   0.891324 0.498198 0.751513 0.935633
C13   C     C_R   0.608561 0.999011 0.249244 0.954345
C14   C     C_R   0.608632 0.999865 0.750177 0.876091
C15   C     C_R   0.391317 0.999551 0.249615 0.846435
C16   C     C_R   0.391324 0.998195 0.751518 0.937237
C17   C     C_R   0.750000 0.499982 0.651103 0.839908
C18   C     C_R   0.749980 0.499979 0.348897 0.819208
C19   C     C_R   0.250019 0.499976 0.651110 0.821503
C20   C     C_R   0.250003 0.499983 0.348889 0.838866
C21   C     C_R   0.250000 0.999982 0.651103 0.838324
C22   C     C_R   0.249981 0.999980 0.348897 0.821537
C23   C     C_R   0.750022 0.999975 0.651110 0.822496
C24   C     C_R   0.750008 0.999979 0.348890 0.828810
C25   C     C_R   0.250000 0.499982 0.151103 0.838729
C26   C     C_R   0.249981 0.499980 0.848897 0.823077
C27   C     C_R   0.750019 0.499977 0.151111 0.817641
C28   C     C_R   0.750008 0.499980 0.848889 0.829240
C29   C     C_R   0.750000 0.999982 0.151103 0.839819
C30   C     C_R   0.749982 0.999980 0.848897 0.821739
C31   C     C_R   0.250020 0.999975 0.151111 0.822954
C32   C     C_R   0.250009 0.999979 0.848889 0.830589
C33   C     C_R   0.749980 0.598877 0.750008 0.855929
C34   C     C_R   0.749999 0.598888 0.250020 0.848306
C35   C     C_R   0.249982 0.598888 0.749997 0.848650
C36   C     C_R   0.249983 0.598877 0.250006 0.854986
C37   C     C_R   0.249998 0.098877 0.749985 0.855870
C38   C     C_R   0.249981 0.098888 0.249996 0.848846
C39   C     C_R   0.750000 0.098888 0.750020 0.848642
C40   C     C_R   0.749998 0.098877 0.249984 0.855819
C41   C     C_R   0.750026 0.401110 0.749990 0.802824
C42   C     C_R   0.750021 0.401122 0.250009 0.817806
C43   C     C_R   0.250019 0.401122 0.750011 0.817034
C44   C     C_R   0.249995 0.401110 0.249995 0.800337
C45   C     C_R   0.249996 0.901110 0.749997 0.802753
C46   C     C_R   0.249991 0.901122 0.250004 0.817001
C47   C     C_R   0.749991 0.901122 0.750004 0.817126
C48   C     C_R   0.750026 0.901110 0.249990 0.802768
C49   C     C_R   0.702707 0.230801 0.752923 0.383475
C50   C     C_R   0.702791 0.230800 0.246311 0.384851
C51   C     C_R   0.296447 0.230837 0.755076 0.386158
C52   C     C_R   0.297127 0.230730 0.245837 0.383893
C53   C     C_R   0.203342 0.730907 0.754145 0.385293
C54   C     C_R   0.203573 0.730902 0.244611 0.386201
C55   C     C_R   0.797159 0.730731 0.753714 0.384628
C56   C     C_R   0.796726 0.730835 0.246162 0.385061
C57   C     C_R   0.203582 0.230907 0.255446 0.385225
C58   C     C_R   0.202799 0.230799 0.746174 0.384866
C59   C     C_R   0.796497 0.230837 0.254893 0.386211
C60   C     C_R   0.796707 0.230835 0.746018 0.385315
C61   C     C_R   0.702683 0.730801 0.252753 0.383440
C62   C     C_R   0.703455 0.730902 0.745120 0.386261
C63   C     C_R   0.297090 0.730734 0.254191 0.384948
C64   C     C_R   0.297331 0.730729 0.747153 0.383688
C65   C     C_R   0.749819 0.211290 0.750003 -0.205294
C66   C     C_R   0.749778 0.211288 0.250069 -0.204506
C67   C     C_R   0.249761 0.211288 0.750090 -0.204487
C68   C     C_R   0.250199 0.211291 0.250121 -0.205327
C69   C     C_R   0.250208 0.711290 0.750126 -0.205399
C70   C     C_R   0.250177 0.711288 0.249922 -0.204066
C71   C     C_R   0.750162 0.711287 0.749938 -0.204469
C72   C     C_R   0.749813 0.711290 0.249990 -0.205321
C73   C     C_R   0.796199 0.269583 0.744680 0.248439
C74   C     C_R   0.795939 0.269587 0.256209 0.248529
C75   C     C_R   0.202726 0.269555 0.747520 0.250211
C76   C     C_R   0.204187 0.269656 0.256725 0.248632
C77   C     C_R   0.297372 0.769484 0.748466 0.251060
C78   C     C_R   0.297203 0.769488 0.252863 0.250962
C79   C     C_R   0.704036 0.769652 0.743823 0.248057
C80   C     C_R   0.702677 0.769553 0.251394 0.251369
C81   C     C_R   0.297239 0.269485 0.247157 0.250821
C82   C     C_R   0.295880 0.269586 0.756391 0.248913
C83   C     C_R   0.702726 0.269555 0.247659 0.250279
C84   C     C_R   0.702692 0.269553 0.751559 0.251410
C85   C     C_R   0.796227 0.769584 0.244828 0.248660
C86   C     C_R   0.797246 0.769486 0.752385 0.251204
C87   C     C_R   0.204178 0.769652 0.243322 0.248356
C88   C     C_R   0.203878 0.769656 0.755435 0.248913
C89   C     C_R   0.749330 0.288812 0.747544 -0.280966
C90   C     C_R   0.749198 0.288817 0.252496 -0.281147
C91   C     C_R   0.249165 0.288817 0.752515 -0.281053
C92   C     C_R   0.250870 0.288814 0.252487 -0.281216
C93   C     C_R   0.250752 0.788814 0.752495 -0.281041
C94   C     C_R   0.250848 0.788816 0.247541 -0.281171
C95   C     C_R   0.750788 0.788815 0.747550 -0.281059
C96   C     C_R   0.749341 0.788812 0.247538 -0.281027
C97   C     C_1   0.749909 0.171481 0.750076 0.010972
C98   C     C_1   0.749879 0.171475 0.249969 0.012856
C99   C     C_1   0.249866 0.171475 0.749981 0.012857
C100  C     C_1   0.250069 0.171481 0.250021 0.010923
C101  C     C_1   0.250081 0.671481 0.750025 0.010922
C102  C     C_1   0.250056 0.671475 0.250007 0.012921
C103  C     C_1   0.750044 0.671474 0.750017 0.012863
C104  C     C_1   0.749904 0.671481 0.250068 0.010583
C105  C     C_1   0.749458 0.328556 0.748749 0.185092
C106  C     C_1   0.749379 0.328564 0.251274 0.187261
C107  C     C_1   0.249357 0.328564 0.751288 0.187622
C108  C     C_1   0.250692 0.328557 0.251246 0.184381
C109  C     C_1   0.250638 0.828557 0.751247 0.184908
C110  C     C_1   0.250665 0.828563 0.248768 0.187466
C111  C     C_1   0.750634 0.828563 0.748775 0.187790
C112  C     C_1   0.749462 0.828557 0.248747 0.184976
C113  C     C_1   0.749661 0.361714 0.749526 -0.002067
C114  C     C_1   0.749624 0.361723 0.250485 0.005577
C115  C     C_1   0.249612 0.361723 0.750492 0.004190
C116  C     C_1   0.250434 0.361714 0.250453 -0.001334
C117  C     C_1   0.250418 0.861714 0.750450 -0.002049
C118  C     C_1   0.250414 0.861723 0.249552 0.004184
C119  C     C_1   0.750402 0.861722 0.749556 0.004322
C120  C     C_1   0.749662 0.861714 0.249526 -0.002058
C121  C     C_1   0.749968 0.138304 0.750060 -0.065142
C122  C     C_1   0.749951 0.138296 0.249965 -0.063942
C123  C     C_1   0.249944 0.138296 0.749970 -0.063972
C124  C     C_1   0.249996 0.138304 0.250005 -0.065237
C125  C     C_1   0.250003 0.638304 0.750008 -0.065186
C126  C     C_1   0.249991 0.638296 0.250011 -0.066482
C127  C     C_1   0.749983 0.638295 0.750016 -0.063966
C128  C     C_1   0.749964 0.638304 0.250056 -0.065047
C129  C     C_3   0.971296 0.455671 0.757985 0.514108
C130  C     C_3   0.968000 0.456653 0.246924 0.542412
C131  C     C_3   0.032096 0.456649 0.753031 0.543373
C132  C     C_3   0.028801 0.455689 0.241954 0.514492
C133  C     C_3   0.471302 0.955685 0.758088 0.515208
C134  C     C_3   0.468764 0.956659 0.250653 0.556709
C135  C     C_3   0.532103 0.956656 0.753126 0.541839
C136  C     C_3   0.529545 0.956381 0.246130 0.508320
C137  C     C_3   0.471305 0.455689 0.258130 0.514873
C138  C     C_3   0.468767 0.456661 0.750689 0.555999
C139  C     C_3   0.532106 0.456658 0.253169 0.542957
C140  C     C_3   0.529547 0.456381 0.746167 0.508787
C141  C     C_3   0.971299 0.955679 0.258027 0.514542
C142  C     C_3   0.968767 0.956661 0.750693 0.557159
C143  C     C_3   0.032099 0.956655 0.253070 0.542470
C144  C     C_3   0.029547 0.956381 0.746175 0.507404
C145  C     C_3   0.968759 0.514386 0.713548 0.451157
C146  C     C_3   0.969998 0.518906 0.285808 0.407274
C147  C     C_3   0.029963 0.518953 0.714233 0.407914
C148  C     C_3   0.031215 0.514354 0.286473 0.451272
C149  C     C_3   0.468757 0.014294 0.713514 0.451585
C150  C     C_3   0.469010 0.022093 0.283890 0.424062
C151  C     C_3   0.529960 0.018869 0.714187 0.407361
C152  C     C_3   0.530160 0.018561 0.286138 0.458344
C153  C     C_3   0.468758 0.514257 0.213502 0.451358
C154  C     C_3   0.469007 0.522120 0.783876 0.423630
C155  C     C_3   0.529960 0.518835 0.214172 0.407622
C156  C     C_3   0.530157 0.518591 0.786128 0.458356
C157  C     C_3   0.968758 0.014345 0.213528 0.451196
C158  C     C_3   0.969005 0.022124 0.783873 0.424160
C159  C     C_3   0.029962 0.018916 0.214207 0.407365
C160  C     C_3   0.030155 0.018596 0.786127 0.457837
C161  C     C_3   0.970248 0.522412 0.784431 -0.012496
C162  C     C_3   0.970152 0.520605 0.214471 0.002970
C163  C     C_3   0.029804 0.520560 0.785573 0.002192
C164  C     C_3   0.029702 0.522464 0.215603 -0.012439
C165  C     C_3   0.470249 0.022489 0.784378 -0.013262
C166  C     C_3   0.469485 0.017143 0.212822 0.002403
C167  C     C_3   0.529803 0.020644 0.785522 0.002668
C168  C     C_3   0.528884 0.021502 0.215134 0.001969
C169  C     C_3   0.470250 0.522519 0.284359 -0.013038
C170  C     C_3   0.469485 0.517117 0.712812 0.003203
C171  C     C_3   0.529803 0.520676 0.285504 0.001983
C172  C     C_3   0.528884 0.521478 0.715122 0.002027
C173  C     C_3   0.970249 0.022451 0.284402 -0.012194
C174  C     C_3   0.969485 0.017112 0.712810 0.002732
C175  C     C_3   0.029803 0.020602 0.285544 0.002852
C176  C     C_3   0.028884 0.021475 0.715120 0.002965
C177  C     C_3   0.948992 0.496958 0.751736 -0.413598
C178  C     C_3   0.948909 0.498900 0.249311 -0.439696
C179  C     C_3   0.051093 0.498905 0.750705 -0.440940
C180  C     C_3   0.051016 0.496973 0.248256 -0.413118
C181  C     C_3   0.448993 0.996956 0.751744 -0.414408
C182  C     C_3   0.448757 0.998527 0.249442 -0.479320
C183  C     C_3   0.551094 0.998907 0.750706 -0.439362
C184  C     C_3   0.550898 0.998392 0.249369 -0.407226
C185  C     C_3   0.448994 0.496954 0.251748 -0.414193
C186  C     C_3   0.448757 0.498528 0.749445 -0.477951
C187  C     C_3   0.551095 0.498907 0.250708 -0.441106
C188  C     C_3   0.550897 0.498396 0.749375 -0.407112
C189  C     C_3   0.948993 0.996959 0.251735 -0.413437
C190  C     C_3   0.948757 0.998528 0.749445 -0.479334
C191  C     C_3   0.051094 0.998909 0.250702 -0.439445
C192  C     C_3   0.050897 0.998396 0.749377 -0.406097
H1    H     H_    0.960706 0.551014 0.777232 0.179589
H2    H     H_    0.957532 0.549677 0.216549 0.208240
H3    H     H_    0.042359 0.549636 0.783545 0.208387
H4    H     H_    0.039185 0.551057 0.222842 0.179605
H5    H     H_    0.460704 0.051073 0.777109 0.179702
H6    H     H_    0.453729 0.045486 0.211364 0.205157
H7    H     H_    0.542356 0.049715 0.783423 0.208084
H8    H     H_    0.535782 0.050814 0.221746 0.197239
H9    H     H_    0.460703 0.551095 0.277062 0.179589
H10   H     H_    0.453728 0.545458 0.711331 0.205102
H11   H     H_    0.542355 0.549745 0.283378 0.208161
H12   H     H_    0.535780 0.550796 0.721712 0.197302
H13   H     H_    0.960705 0.051043 0.277169 0.179672
H14   H     H_    0.953728 0.045453 0.711326 0.205343
H15   H     H_    0.042357 0.049675 0.283483 0.208266
H16   H     H_    0.035779 0.050793 0.721707 0.197135
C193  C     C_R   0.703507 0.495912 0.019555 0.194768
C194  C     C_R   0.703127 0.497686 0.980694 0.197569
C195  C     C_R   0.296916 0.497836 0.019304 0.197289
C196  C     C_R   0.296544 0.496061 0.980443 0.194582
C197  C     C_R   0.203516 0.995909 0.019556 0.194907
C198  C     C_R   0.203137 0.997684 0.980695 0.197989
C199  C     C_R   0.796908 0.997749 0.019305 0.197094
C200  C     C_R   0.796531 0.995977 0.980444 0.194435
C201  C     C_R   0.203645 0.495115 0.519552 0.194891
C202  C     C_R   0.203207 0.496891 0.480691 0.197111
C203  C     C_R   0.796898 0.497685 0.519305 0.197492
C204  C     C_R   0.796516 0.495911 0.480444 0.195153
C205  C     C_R   0.703886 0.994122 0.519553 0.194736
C206  C     C_R   0.703378 0.995896 0.480693 0.197482
C207  C     C_R   0.296823 0.996973 0.519305 0.196875
C208  C     C_R   0.296389 0.995199 0.480444 0.194385
C209  C     C_R   0.750504 0.498196 0.038695 -0.185167
C210  C     C_R   0.749748 0.501723 0.961305 -0.185440
C211  C     C_R   0.250266 0.501744 0.038695 -0.184947
C212  C     C_R   0.249527 0.498216 0.961308 -0.184754
C213  C     C_R   0.250515 0.998170 0.038695 -0.184585
C214  C     C_R   0.249762 0.001700 0.961306 -0.185262
C215  C     C_R   0.750272 0.001741 0.038695 -0.184985
C216  C     C_R   0.749522 0.998216 0.961308 -0.184845
C217  C     C_R   0.250554 0.498189 0.538693 -0.184948
C218  C     C_R   0.249681 0.501723 0.461304 -0.185337
C219  C     C_R   0.750272 0.501737 0.538695 -0.185112
C220  C     C_R   0.749512 0.498210 0.461308 -0.184556
C221  C     C_R   0.750651 0.998158 0.538695 -0.184847
C222  C     C_R   0.749639 0.001688 0.461307 -0.185433
C223  C     C_R   0.250327 0.001739 0.538695 -0.185110
C224  C     C_R   0.249464 0.998213 0.461308 -0.185118
C225  C     C_R   0.797131 0.502247 0.019310 0.192230
C226  C     C_R   0.796754 0.504003 0.980441 0.189464
C227  C     C_R   0.203242 0.503899 0.019563 0.189758
C228  C     C_R   0.202873 0.502142 0.980696 0.192653
C229  C     C_R   0.297147 0.002193 0.019310 0.192308
C230  C     C_R   0.296770 0.003952 0.980441 0.189981
C231  C     C_R   0.703255 0.003980 0.019563 0.189818
C232  C     C_R   0.702881 0.002225 0.980695 0.192440
C233  C     C_R   0.297034 0.503031 0.519309 0.192145
C234  C     C_R   0.296599 0.504791 0.480441 0.189819
C235  C     C_R   0.703260 0.504034 0.519563 0.189951
C236  C     C_R   0.702881 0.502278 0.480696 0.192604
C237  C     C_R   0.796920 0.003952 0.519312 0.192078
C238  C     C_R   0.796415 0.005711 0.480444 0.190068
C239  C     C_R   0.203394 0.004751 0.519562 0.189747
C240  C     C_R   0.202963 0.002995 0.480695 0.192288
C241  C     C_1   0.750494 0.499050 0.078484 0.175870
C242  C     C_1   0.749712 0.500868 0.921516 0.176699
C243  C     C_1   0.250309 0.500880 0.078481 0.176893
C244  C     C_1   0.249524 0.499067 0.921521 0.177041
C245  C     C_1   0.250505 0.999033 0.078484 0.175865
C246  C     C_1   0.249722 0.000854 0.921517 0.178167
C247  C     C_1   0.750312 0.000879 0.078481 0.178099
C248  C     C_1   0.749522 0.999067 0.921521 0.176053
C249  C     C_1   0.250518 0.499042 0.578482 0.175112
C250  C     C_1   0.249673 0.500875 0.421515 0.178016
C251  C     C_1   0.750311 0.500876 0.578481 0.178366
C252  C     C_1   0.749514 0.499062 0.421521 0.176049
C253  C     C_1   0.750576 0.999019 0.578484 0.175917
C254  C     C_1   0.749661 0.000855 0.421518 0.176897
C255  C     C_1   0.250340 0.000881 0.578481 0.176881
C256  C     C_1   0.249491 0.999062 0.421521 0.176301
C257  C     C_1   0.749767 0.500294 0.888327 -0.005896
C258  C     C_1   0.750350 0.499632 0.111673 -0.007773
C259  C     C_1   0.249656 0.499643 0.888333 -0.004751
C260  C     C_1   0.250253 0.500300 0.111668 -0.003956
C261  C     C_1   0.249774 0.000287 0.888327 -0.003955
C262  C     C_1   0.250359 0.999622 0.111673 -0.007144
C263  C     C_1   0.749655 0.999644 0.888333 -0.006375
C264  C     C_1   0.750253 0.000299 0.111668 -0.002310
C265  C     C_1   0.249749 0.500302 0.388326 -0.002304
C266  C     C_1   0.250360 0.499626 0.611672 -0.008545
C267  C     C_1   0.749650 0.499640 0.388333 -0.006851
C268  C     C_1   0.750252 0.500298 0.611668 -0.002053
C269  C     C_1   0.749753 0.000292 0.388328 -0.005526
C270  C     C_1   0.750386 0.999612 0.611673 -0.007014
C271  C     C_1   0.249644 0.999640 0.388333 -0.006196
C272  C     C_1   0.250263 0.000302 0.611668 -0.003911
N1    N     N_R   0.654833 0.289270 0.754446 0.267401
O105  O     O_R   0.644319 0.316080 0.731816 -0.309028
O106  O     O_R   0.620684 0.279588 0.778811 -0.212024
N2    N     N_R   0.654993 0.289271 0.243913 0.268257
O107  O     O_R   0.643645 0.316109 0.266326 -0.298753
O108  O     O_R   0.621763 0.279566 0.218962 -0.210223
N3    N     N_R   0.343284 0.289335 0.761553 0.263709
O109  O     O_R   0.346141 0.316105 0.785373 -0.291577
O110  O     O_R   0.384367 0.279709 0.743499 -0.214109
N4    N     N_R   0.344912 0.289130 0.242878 0.267714
O111  O     O_R   0.356689 0.315956 0.265157 -0.305989
O112  O     O_R   0.377676 0.279370 0.217563 -0.212362
N5    N     N_R   0.156286 0.789477 0.759610 0.263250
O113  O     O_R   0.152427 0.816269 0.783342 -0.296035
O114  O     O_R   0.115987 0.779896 0.740730 -0.216441
N6    N     N_R   0.156857 0.789468 0.237833 0.264281
O115  O     O_R   0.154342 0.816249 0.214009 -0.289283
O116  O     O_R   0.115524 0.779893 0.255589 -0.213736
N7    N     N_R   0.844990 0.789133 0.756145 0.267957
O117  O     O_R   0.856367 0.815950 0.733736 -0.302737
O118  O     O_R   0.878203 0.779381 0.781101 -0.210887
N8    N     N_R   0.843867 0.789332 0.240846 0.263257
O119  O     O_R   0.847943 0.816099 0.217116 -0.295475
O120  O     O_R   0.883998 0.779711 0.259909 -0.216620
N9    N     N_R   0.156853 0.289477 0.262222 0.263474
O121  O     O_R   0.154278 0.316273 0.286036 -0.295947
O122  O     O_R   0.115564 0.279895 0.244481 -0.215133
N10   N     N_R   0.155018 0.289271 0.743613 0.268345
O123  O     O_R   0.143526 0.316112 0.765985 -0.299327
O124  O     O_R   0.121949 0.279564 0.718553 -0.209443
N11   N     N_R   0.843379 0.289336 0.261205 0.264188
O125  O     O_R   0.846396 0.316108 0.285011 -0.289098
O126  O     O_R   0.884339 0.279709 0.243009 -0.214203
N12   N     N_R   0.843812 0.289331 0.740535 0.263391
O127  O     O_R   0.847732 0.316097 0.716790 -0.295525
O128  O     O_R   0.884068 0.279712 0.759463 -0.214530
N13   N     N_R   0.654801 0.789270 0.254123 0.267477
O129  O     O_R   0.644435 0.816084 0.231461 -0.308573
O130  O     O_R   0.620494 0.779586 0.278372 -0.211712
N14   N     N_R   0.656609 0.789468 0.738831 0.264331
O131  O     O_R   0.653610 0.816249 0.715035 -0.289325
O132  O     O_R   0.615640 0.779895 0.757019 -0.212072
N15   N     N_R   0.344863 0.789136 0.257125 0.268015
O133  O     O_R   0.356693 0.815955 0.234839 -0.300832
O134  O     O_R   0.377564 0.779386 0.282429 -0.211655
N16   N     N_R   0.345239 0.789129 0.745518 0.267768
O135  O     O_R   0.355797 0.815964 0.768100 -0.307744
O136  O     O_R   0.379350 0.779358 0.721145 -0.211161
N17   N     N_R   0.844694 0.506057 0.039073 0.257365
O137  O     O_R   0.875976 0.532915 0.031294 -0.229736
O138  O     O_R   0.856846 0.482823 0.064993 -0.286771
N18   N     N_R   0.844329 0.506627 0.960422 0.255137
O139  O     O_R   0.882131 0.484421 0.967993 -0.229918
O140  O     O_R   0.850015 0.531098 0.934487 -0.281462
N19   N     N_R   0.155650 0.506395 0.039586 0.254807
O141  O     O_R   0.118010 0.484088 0.032012 -0.230249
O142  O     O_R   0.149787 0.530850 0.065527 -0.280776
N20   N     N_R   0.155280 0.505825 0.960936 0.257243
O143  O     O_R   0.123803 0.532599 0.968720 -0.229240
O144  O     O_R   0.143293 0.482555 0.935014 -0.285395
N21   N     N_R   0.344715 0.005972 0.039073 0.256842
O145  O     O_R   0.376031 0.032809 0.031295 -0.232194
O146  O     O_R   0.356836 0.982730 0.064993 -0.281399
N22   N     N_R   0.344347 0.006551 0.960422 0.255378
O147  O     O_R   0.382125 0.984323 0.967989 -0.227739
O148  O     O_R   0.350060 0.031022 0.934489 -0.281752
N23   N     N_R   0.655672 0.006562 0.039586 0.255249
O149  O     O_R   0.617955 0.984322 0.032011 -0.227853
O150  O     O_R   0.649893 0.031028 0.065526 -0.282193
N24   N     N_R   0.655301 0.005993 0.960935 0.257263
O151  O     O_R   0.623917 0.032824 0.968720 -0.230428
O152  O     O_R   0.643234 0.982746 0.935014 -0.286022
N25   N     N_R   0.344459 0.507636 0.539073 0.256824
O153  O     O_R   0.374851 0.535019 0.531307 -0.232967
O154  O     O_R   0.357370 0.484602 0.564982 -0.282433
N26   N     N_R   0.344073 0.508227 0.460422 0.255308
O155  O     O_R   0.382595 0.486667 0.467988 -0.227509
O156  O     O_R   0.348952 0.532793 0.434493 -0.282879
N27   N     N_R   0.655684 0.506676 0.539586 0.255255
O157  O     O_R   0.617913 0.484483 0.532013 -0.227870
O158  O     O_R   0.649965 0.531150 0.565526 -0.281843
N28   N     N_R   0.655310 0.506105 0.460936 0.257135
O159  O     O_R   0.623991 0.532975 0.468720 -0.230631
O160  O     O_R   0.643187 0.482872 0.435015 -0.283922
N29   N     N_R   0.844141 0.009522 0.539078 0.256616
O161  O     O_R   0.873435 0.037518 0.531317 -0.233048
O162  O     O_R   0.857957 0.986758 0.564985 -0.280763
N30   N     N_R   0.843732 0.010120 0.460427 0.255391
O163  O     O_R   0.883094 0.989356 0.467988 -0.228377
O164  O     O_R   0.847635 0.034783 0.434503 -0.282712
N31   N     N_R   0.155905 0.008122 0.539584 0.255115
O165  O     O_R   0.117484 0.986513 0.532013 -0.229639
O166  O     O_R   0.150913 0.032680 0.565521 -0.282115
N32   N     N_R   0.155516 0.007546 0.460934 0.257228
O167  O     O_R   0.125001 0.034891 0.468712 -0.230009
O168  O     O_R   0.142706 0.984500 0.435017 -0.286543
O169  O     O_3   0.655632 0.213315 0.756096 -0.635557
H17   H     H_    0.659992 0.186367 0.758517 0.367646
O170  O     O_3   0.655849 0.213313 0.242310 -0.633255
H18   H     H_    0.660287 0.186358 0.240044 0.368710
O171  O     O_3   0.343322 0.213393 0.759820 -0.635440
H19   H     H_    0.339962 0.186439 0.756768 0.366589
O172  O     O_3   0.343982 0.213175 0.241332 -0.633875
H20   H     H_    0.339493 0.186222 0.239163 0.367406
O173  O     O_3   0.156274 0.713534 0.757949 -0.635053
H21   H     H_    0.159753 0.686569 0.755034 0.367564
O174  O     O_3   0.156759 0.713523 0.239520 -0.635320
H22   H     H_    0.160066 0.686564 0.242575 0.366738
O175  O     O_3   0.844090 0.713179 0.757715 -0.635429
H23   H     H_    0.839635 0.686230 0.759981 0.366595
O176  O     O_3   0.843812 0.713387 0.242581 -0.635141
H24   H     H_    0.840302 0.686439 0.245594 0.367543
O177  O     O_3   0.156754 0.213532 0.260559 -0.635244
H25   H     H_    0.160074 0.186568 0.257546 0.367631
O178  O     O_3   0.155884 0.213313 0.742014 -0.633131
H26   H     H_    0.160335 0.186356 0.739779 0.368815
O179  O     O_3   0.843403 0.213393 0.259476 -0.635185
H27   H     H_    0.840023 0.186440 0.256428 0.366644
O180  O     O_3   0.843769 0.213387 0.742284 -0.633560
H28   H     H_    0.840283 0.186441 0.745332 0.367691
O181  O     O_3   0.655588 0.713315 0.255766 -0.635428
H29   H     H_    0.659930 0.686366 0.258185 0.367642
O182  O     O_3   0.656541 0.713524 0.740524 -0.633170
H30   H     H_    0.659906 0.686565 0.743559 0.368827
O183  O     O_3   0.343934 0.713182 0.258686 -0.635210
H31   H     H_    0.339437 0.686233 0.260895 0.366704
O184  O     O_3   0.344392 0.713172 0.743965 -0.633722
H32   H     H_    0.340025 0.686217 0.741693 0.367574
N33   N     N_R   0.949621 0.424985 0.735379 0.211118
O185  O     O_R   0.923150 0.429390 0.705372 -0.220758
O186  O     O_R   0.959898 0.391276 0.745357 -0.223804
N34   N     N_R   0.950924 0.434342 0.279375 0.248227
O187  O     O_R   0.974350 0.435521 0.311017 -0.196464
O188  O     O_R   0.916166 0.408876 0.275161 -0.260134
N35   N     N_R   0.049230 0.434372 0.720555 0.247914
O189  O     O_R   0.025831 0.435602 0.688904 -0.199004
O190  O     O_R   0.084002 0.408876 0.724752 -0.262275
N36   N     N_R   0.050557 0.424974 0.264508 0.210911
O191  O     O_R   0.076990 0.429339 0.294535 -0.219821
O192  O     O_R   0.040366 0.391278 0.254472 -0.226663
N37   N     N_R   0.449629 0.924946 0.735556 0.211372
O193  O     O_R   0.423113 0.929282 0.705560 -0.226534
O194  O     O_R   0.459924 0.891260 0.745605 -0.220700
N38   N     N_R   0.451910 0.936893 0.284730 0.241167
O195  O     O_R   0.473899 0.941902 0.316513 -0.207081
O196  O     O_R   0.418850 0.910059 0.282359 -0.257701
N39   N     N_R   0.549238 0.934312 0.720696 0.248069
O197  O     O_R   0.525817 0.935456 0.689050 -0.197886
O198  O     O_R   0.584049 0.908851 0.724937 -0.260083
N40   N     N_R   0.551741 0.927617 0.270976 0.214702
O199  O     O_R   0.575101 0.934381 0.301880 -0.220900
O200  O     O_R   0.543776 0.893149 0.262665 -0.221380
N41   N     N_R   0.449635 0.424930 0.235624 0.211460
O201  O     O_R   0.423097 0.429239 0.205634 -0.226704
O202  O     O_R   0.459944 0.391254 0.245697 -0.218993
N42   N     N_R   0.451912 0.436920 0.784782 0.241225
O203  O     O_R   0.473899 0.441955 0.816561 -0.205666
O204  O     O_R   0.418853 0.410084 0.782432 -0.253626
N43   N     N_R   0.549245 0.434284 0.220761 0.247722
O205  O     O_R   0.525825 0.435398 0.189113 -0.200483
O206  O     O_R   0.584055 0.408827 0.225028 -0.262868
N44   N     N_R   0.551744 0.427637 0.771035 0.214737
O207  O     O_R   0.575095 0.434423 0.801937 -0.221038
O208  O     O_R   0.543785 0.393162 0.762747 -0.222694
N45   N     N_R   0.949626 0.924969 0.235454 0.211082
O209  O     O_R   0.923129 0.929342 0.205455 -0.220539
O210  O     O_R   0.959918 0.891271 0.245462 -0.225794
N46   N     N_R   0.951909 0.936923 0.784787 0.241298
O211  O     O_R   0.973892 0.941963 0.816566 -0.206315
O212  O     O_R   0.918859 0.910082 0.782436 -0.257837
N47   N     N_R   0.049235 0.934348 0.220613 0.248241
O213  O     O_R   0.025823 0.935537 0.188965 -0.196716
O214  O     O_R   0.084031 0.908872 0.224828 -0.260310
N48   N     N_R   0.051741 0.927640 0.771050 0.214973
O215  O     O_R   0.075099 0.934432 0.801948 -0.215702
O216  O     O_R   0.043773 0.893164 0.762772 -0.223868
O217  O     O_3   0.960781 0.445956 0.794891 -0.601041
H33   H     H_    0.924430 0.437770 0.796416 0.351915
O218  O     O_3   0.946582 0.439678 0.215279 -0.612260
H34   H     H_    0.908600 0.440362 0.216627 0.337908
O219  O     O_3   0.053540 0.439642 0.784658 -0.607874
H35   H     H_    0.091522 0.440325 0.783315 0.340460
O220  O     O_3   0.039320 0.446021 0.205031 -0.601921
H36   H     H_    0.075689 0.437838 0.203484 0.351463
O221  O     O_3   0.460796 0.946054 0.795018 -0.599569
H37   H     H_    0.424447 0.937867 0.796565 0.354730
O222  O     O_3   0.448246 0.936859 0.220358 -0.605497
H38   H     H_    0.410236 0.937213 0.221430 0.345844
O223  O     O_3   0.553555 0.939718 0.784787 -0.611285
H39   H     H_    0.591536 0.940408 0.783442 0.337945
O224  O     O_3   0.540980 0.944245 0.210088 -0.599860
H40   H     H_    0.577749 0.936939 0.209271 0.353586
O225  O     O_3   0.460797 0.446090 0.295067 -0.599233
H41   H     H_    0.424448 0.437903 0.296620 0.354474
O226  O     O_3   0.448251 0.436837 0.720408 -0.610072
H42   H     H_    0.410241 0.437192 0.721478 0.343090
O227  O     O_3   0.553559 0.439751 0.284846 -0.607148
H43   H     H_    0.591539 0.440438 0.283500 0.340554
O228  O     O_3   0.540983 0.444219 0.710134 -0.600612
H44   H     H_    0.577752 0.436913 0.709323 0.353455
O229  O     O_3   0.960789 0.946003 0.294944 -0.602008
H45   H     H_    0.924438 0.937817 0.296479 0.351652
O230  O     O_3   0.948253 0.936835 0.720413 -0.606636
H46   H     H_    0.910244 0.937186 0.721483 0.345711
O231  O     O_3   0.053547 0.939678 0.284711 -0.612495
H47   H     H_    0.091528 0.940365 0.283368 0.337741
O232  O     O_3   0.040987 0.944213 0.710144 -0.602510
H48   H     H_    0.077757 0.936910 0.709336 0.350469
O233  O     O_3   0.956125 0.489720 0.684959 -0.605517
H49   H     H_    0.963892 0.501624 0.660895 0.426288
O234  O     O_3   0.949052 0.501249 0.317147 -0.655298
H50   H     H_    0.913988 0.510924 0.321873 0.372215
O235  O     O_3   0.050966 0.501341 0.682871 -0.655756
H51   H     H_    0.086005 0.511032 0.678165 0.371897
O236  O     O_3   0.043922 0.489658 0.315027 -0.605298
H52   H     H_    0.036136 0.501534 0.339107 0.426415
O237  O     O_3   0.456129 0.989554 0.684986 -0.605554
H53   H     H_    0.463893 0.001398 0.660892 0.426186
O238  O     O_3   0.448712 0.007990 0.317278 -0.647093
H54   H     H_    0.411189 0.012019 0.318547 0.379948
O239  O     O_3   0.550964 0.001187 0.682865 -0.655651
H55   H     H_    0.585986 0.010890 0.678116 0.372027
O240  O     O_3   0.543792 0.996303 0.316395 -0.628793
H56   H     H_    0.535785 0.009305 0.339798 0.425964
O241  O     O_3   0.456133 0.489488 0.184998 -0.605587
H57   H     H_    0.463896 0.501309 0.160893 0.426210
O242  O     O_3   0.448706 0.508041 0.817274 -0.646670
H58   H     H_    0.411181 0.512062 0.818533 0.380051
O243  O     O_3   0.550966 0.501126 0.182865 -0.655505
H59   H     H_    0.585978 0.510837 0.178098 0.372399
O244  O     O_3   0.543789 0.496357 0.816402 -0.629054
H60   H     H_    0.535778 0.509375 0.839795 0.426073
O245  O     O_3   0.956127 0.989644 0.184967 -0.605532
H61   H     H_    0.963893 0.001520 0.160890 0.426412
O246  O     O_3   0.948704 0.008050 0.817272 -0.646892
H62   H     H_    0.911179 0.012070 0.818530 0.379970
O247  O     O_3   0.050966 0.001272 0.182864 -0.655305
H63   H     H_    0.085998 0.010968 0.178140 0.372151
O248  O     O_3   0.043787 0.996365 0.816404 -0.629047
H64   H     H_    0.035775 0.009386 0.839795 0.426134
N49   N     N_R   0.947116 0.518850 0.821681 0.317001
O249  O     O_R   0.958486 0.543592 0.846381 -0.238192
O250  O     O_R   0.911159 0.495299 0.829648 -0.312467
N50   N     N_R   0.949125 0.507642 0.178783 0.277400
O251  O     O_R   0.915820 0.528143 0.161580 -0.277256
O252  O     O_R   0.969306 0.480154 0.160800 -0.166063
N51   N     N_R   0.050858 0.507545 0.821238 0.277327
O253  O     O_R   0.084166 0.528000 0.838455 -0.277290
O254  O     O_R   0.030708 0.480053 0.839193 -0.164659
N52   N     N_R   0.052830 0.518947 0.178344 0.317104
O255  O     O_R   0.041403 0.543722 0.153684 -0.237791
O256  O     O_R   0.088828 0.495402 0.170335 -0.313231
N53   N     N_R   0.447125 0.019019 0.821640 0.316980
O257  O     O_R   0.458478 0.043834 0.846271 -0.238334
O258  O     O_R   0.411207 0.995464 0.829681 -0.310540
N54   N     N_R   0.450783 0.999462 0.178500 0.279767
O259  O     O_R   0.413314 0.014848 0.160416 -0.288637
O260  O     O_R   0.475675 0.972832 0.162380 -0.155979
N55   N     N_R   0.550855 0.007717 0.821221 0.277321
O261  O     O_R   0.584125 0.028231 0.838404 -0.277950
O262  O     O_R   0.530725 0.980253 0.839229 -0.164888
N56   N     N_R   0.553639 0.017266 0.178570 0.309742
O263  O     O_R   0.542552 0.041031 0.152868 -0.239742
O264  O     O_R   0.588369 0.992493 0.171427 -0.311639
N57   N     N_R   0.447127 0.519084 0.321625 0.316845
O265  O     O_R   0.458473 0.543927 0.346229 -0.238589
O266  O     O_R   0.411223 0.495527 0.329694 -0.311495
N58   N     N_R   0.450784 0.499408 0.678504 0.279559
O267  O     O_R   0.413305 0.514774 0.660413 -0.288842
O268  O     O_R   0.475681 0.472770 0.662402 -0.157834
N59   N     N_R   0.550854 0.507784 0.321216 0.277466
O269  O     O_R   0.584113 0.528319 0.338385 -0.277527
O270  O     O_R   0.530727 0.480333 0.339248 -0.163840
N60   N     N_R   0.553642 0.517215 0.678562 0.309879
O271  O     O_R   0.542552 0.540957 0.652840 -0.239151
O272  O     O_R   0.588381 0.492442 0.671442 -0.311968
N61   N     N_R   0.947122 0.018932 0.321658 0.317061
O273  O     O_R   0.958480 0.043711 0.346324 -0.237354
O274  O     O_R   0.911187 0.995376 0.329661 -0.313360
N62   N     N_R   0.950785 0.999400 0.678504 0.279705
O275  O     O_R   0.913304 0.014761 0.660412 -0.287543
O276  O     O_R   0.975685 0.972761 0.662404 -0.158076
N63   N     N_R   0.050856 0.007629 0.321226 0.277297
O277  O     O_R   0.084140 0.028114 0.338430 -0.276904
O278  O     O_R   0.030719 0.980147 0.339204 -0.166683
N64   N     N_R   0.053643 0.017208 0.678562 0.309892
O279  O     O_R   0.042555 0.040947 0.652837 -0.238893
O280  O     O_R   0.088381 0.992433 0.671445 -0.314132
N65   N     N_R   0.940897 0.549591 0.705562 0.203622
O281  O     O_R   0.904187 0.549921 0.681180 -0.319841
O282  O     O_R   0.949390 0.580010 0.723600 -0.338161
N66   N     N_R   0.954961 0.558416 0.289054 0.199115
O283  O     O_R   0.966170 0.575638 0.319550 -0.239658
O284  O     O_R   0.919189 0.572864 0.268645 -0.391913
N67   N     N_R   0.044895 0.558470 0.711048 0.199045
O285  O     O_R   0.033650 0.575729 0.680577 -0.239554
O286  O     O_R   0.080626 0.572901 0.731484 -0.391796
N68   N     N_R   0.058989 0.549555 0.294501 0.203523
O287  O     O_R   0.095718 0.549863 0.318869 -0.320684
O288  O     O_R   0.050397 0.579997 0.276517 -0.338949
N69   N     N_R   0.440888 0.049475 0.705440 0.203415
O289  O     O_R   0.404190 0.049745 0.681047 -0.320473
O290  O     O_R   0.449364 0.079938 0.723409 -0.338962
N70   N     N_R   0.451911 0.061405 0.280831 0.211445
O291  O     O_R   0.415768 0.074080 0.302221 -0.323517
O292  O     O_R   0.474244 0.084860 0.258891 -0.344303
N71   N     N_R   0.544889 0.058380 0.710917 0.199126
O293  O     O_R   0.533629 0.075575 0.680413 -0.239008
O294  O     O_R   0.580646 0.072845 0.731305 -0.391219
N72   N     N_R   0.553683 0.055418 0.293095 0.213601
O295  O     O_R   0.541581 0.073340 0.323027 -0.254512
O296  O     O_R   0.587719 0.070207 0.271411 -0.373675
N73   N     N_R   0.440886 0.549429 0.205393 0.203570
O297  O     O_R   0.404197 0.549675 0.180993 -0.318731
O298  O     O_R   0.449353 0.579907 0.223337 -0.338011
N74   N     N_R   0.451905 0.561429 0.780788 0.211494
O299  O     O_R   0.415763 0.574118 0.802170 -0.323306
O300  O     O_R   0.474235 0.584868 0.758830 -0.344338
N75   N     N_R   0.544887 0.558344 0.210869 0.199112
O301  O     O_R   0.533622 0.575514 0.180352 -0.237705
O302  O     O_R   0.580654 0.572823 0.231238 -0.391136
N76   N     N_R   0.553676 0.555455 0.793058 0.213532
O303  O     O_R   0.541573 0.573398 0.822977 -0.254387
O304  O     O_R   0.587709 0.570231 0.771363 -0.374401
N77   N     N_R   0.940892 0.049539 0.205501 0.203546
O305  O     O_R   0.904187 0.049840 0.181113 -0.320544
O306  O     O_R   0.949376 0.079978 0.223506 -0.338983
N78   N     N_R   0.951904 0.061433 0.780780 0.211426
O307  O     O_R   0.915759 0.074124 0.802159 -0.325023
O308  O     O_R   0.974235 0.084869 0.758820 -0.344318
N79   N     N_R   0.044893 0.058431 0.210983 0.199059
O309  O     O_R   0.033639 0.075660 0.180498 -0.239555
O310  O     O_R   0.080638 0.072876 0.231395 -0.391809
N80   N     N_R   0.053674 0.055461 0.793054 0.213695
O311  O     O_R   0.041570 0.073407 0.822970 -0.254254
O312  O     O_R   0.087708 0.070234 0.771357 -0.373512
N81   N     N_R   0.655555 0.493919 0.960937 0.255166
O313  O     O_R   0.643372 0.517235 0.935099 -0.304329
O314  O     O_R   0.624269 0.467051 0.968671 -0.234593
N82   N     N_R   0.655934 0.493262 0.039568 0.251412
O315  O     O_R   0.650223 0.468713 0.065425 -0.294914
O316  O     O_R   0.618145 0.515497 0.032047 -0.242021
N83   N     N_R   0.344133 0.493540 0.960426 0.252270
O317  O     O_R   0.350022 0.469005 0.934564 -0.290152
O318  O     O_R   0.381757 0.515878 0.967948 -0.239521
N84   N     N_R   0.344517 0.494199 0.039059 0.254428
O319  O     O_R   0.356517 0.517536 0.064915 -0.296171
O320  O     O_R   0.376007 0.467421 0.031311 -0.235506
N85   N     N_R   0.155562 0.993940 0.960938 0.255445
O321  O     O_R   0.143395 0.017265 0.935104 -0.304726
O322  O     O_R   0.124256 0.967082 0.968668 -0.231845
N86   N     N_R   0.155941 0.993280 0.039569 0.251152
O323  O     O_R   0.150210 0.968735 0.065429 -0.291426
O324  O     O_R   0.118169 0.015530 0.032046 -0.243091
N87   N     N_R   0.844112 0.993371 0.960427 0.252336
O325  O     O_R   0.849916 0.968827 0.934563 -0.291357
O326  O     O_R   0.881814 0.015640 0.967951 -0.240245
N88   N     N_R   0.844496 0.994026 0.039060 0.254788
O327  O     O_R   0.856579 0.017341 0.064916 -0.297236
O328  O     O_R   0.875892 0.967191 0.031313 -0.233499
N89   N     N_R   0.155774 0.492321 0.460932 0.254970
O329  O     O_R   0.142831 0.515423 0.435093 -0.297006
O330  O     O_R   0.125386 0.464923 0.468657 -0.233581
N90   N     N_R   0.156174 0.491652 0.539565 0.251353
O331  O     O_R   0.151279 0.467011 0.565422 -0.293795
O332  O     O_R   0.117659 0.513234 0.532044 -0.242611
N91   N     N_R   0.844090 0.493244 0.460426 0.251236
O333  O     O_R   0.849833 0.468693 0.434563 -0.291458
O334  O     O_R   0.881847 0.515466 0.467950 -0.243207
N92   N     N_R   0.844477 0.493902 0.539059 0.254843
O335  O     O_R   0.856618 0.517203 0.564914 -0.297273
O336  O     O_R   0.875806 0.467026 0.531314 -0.233065
N93   N     N_R   0.656148 0.990355 0.460934 0.255223
O337  O     O_R   0.642274 0.013199 0.435115 -0.303168
O338  O     O_R   0.626876 0.962333 0.468644 -0.234807
N94   N     N_R   0.656574 0.989678 0.539565 0.251352
O339  O     O_R   0.652667 0.964944 0.565419 -0.292403
O340  O     O_R   0.617210 0.010455 0.532044 -0.241479
N95   N     N_R   0.343874 0.991802 0.460428 0.252472
O341  O     O_R   0.348887 0.967166 0.434568 -0.292429
O342  O     O_R   0.382284 0.013440 0.467949 -0.239451
N96   N     N_R   0.344280 0.992467 0.539060 0.254454
O343  O     O_R   0.357110 0.015582 0.564910 -0.296558
O344  O     O_R   0.374805 0.965116 0.531322 -0.235991

loop_
_geom_bond_atom_site_label_1
_geom_bond_atom_site_label_2
_geom_bond_distance
_ccdc_geom_bond_type
Zn29  O101  1.960935 S    
N83   O318  1.301277 A    
C205  C206  1.410053 A    
C5    C192  1.502509 S    
Zn5   O5    1.934951 S    
O98   C10   1.267344 A    
C63   C78   1.406395 A    
O40   C32   1.279085 A    
N1    O105  1.301388 A    
C157  N77   1.496680 S    
N95   O341  1.301273 A    
C204  C220  1.410469 A    
C167  H7    1.106759 S    
C134  N38   1.493911 S    
C62   O182  1.385840 S    
Zn4   O4    1.936100 S    
C1    C188  1.502504 S    
C219  C235  1.410567 A    
N45   O209  1.298310 A    
C135  O223  1.416945 S    
C225  N17   1.438756 S    
C200  C216  1.410468 A    
O88   C32   1.279930 A    
N92   O335  1.301285 A    
C64   C69   1.420194 A    
C217  C233  1.410425 A    
C155  O243  1.413327 S    
N63   O278  1.301333 A    
Zn23  O95   1.961168 S    
C47   C119  1.429075 S    
C56   C85   1.406224 A    
O229  H45   0.994220 S    
C137  O225  1.409943 S    
N42   O204  1.303006 A    
N96   O343  1.301289 A    
C210  C242  1.442474 S    
Zn28  O52   1.908165 S    
C249  C266  1.203147 T    
C232  N24   1.438757 S    
N79   O309  1.303073 A    
Zn22  O6    1.934948 S    
O222  H38   0.991058 S    
O15   C7    1.265772 A    
N38   O195  1.299937 A    
O16   C8    1.264337 A    
N33   O185  1.298318 A    
C222  C254  1.442481 S    
C53   O173  1.385849 S    
N20   O144  1.301288 A    
O60   C44   1.278433 A    
N19   O142  1.301292 A    
O61   C45   1.277772 A    
C54   C70   1.420065 A    
Zn24  O96   1.960423 S    
N19   O141  1.301277 A    
N14   O131  1.301391 A    
N9    O122  1.301348 A    
Zn7   O70   1.907984 S    
C152  N72   1.492529 S    
C139  C187  1.612973 S    
C16   C181  1.503144 S    
C91   C107  1.442275 S    
Zn11  O83   1.906954 S    
C6    C191  1.499572 S    
O97   C9    1.275728 A    
C94   C110  1.442260 S    
C84   N1    1.440593 S    
Zn2   O2    1.936569 S    
N54   O260  1.301097 A    
O72   C45   1.278444 A    
C24   C269  1.429506 S    
C173  C189  1.601688 S    
C195  N84   1.438697 S    
Zn25  O49   1.908606 S    
N23   O150  1.301289 A    
N76   O304  1.300365 A    
C131  C179  1.613041 S    
N18   O140  1.301292 A    
N74   O299  1.302540 A    
O104  C16   1.275422 A    
N58   O268  1.301097 A    
O245  H61   0.993904 S    
N52   O256  1.300458 A    
N27   O158  1.301290 A    
C31   C262  1.429494 S    
C201  N90   1.438665 S    
C174  C176  1.558067 S    
C162  H2    1.106755 S    
C224  C256  1.442417 S    
C56   O176  1.385836 S    
C240  N32   1.438756 S    
N50   O252  1.301328 A    
C203  N92   1.438696 S    
C227  C228  1.410253 A    
C198  N85   1.438676 S    
C105  C113  1.202910 T    
C218  C250  1.442472 S    
O14   C6    1.267943 A    
C141  N45   1.493520 S    
C212  C244  1.442418 S    
N48   O215  1.298826 A    
C13   C184  1.502503 S    
C157  O245  1.408363 S    
N28   O159  1.301276 A    
C52   C81   1.406357 A    
C254  C269  1.203139 T    
C109  C117  1.202908 T    
C198  C214  1.410315 A    
C223  C239  1.410567 A    
C224  C240  1.410412 A    
C50   O170  1.385831 S    
C230  N22   1.438758 S    
N40   O199  1.298826 A    
C143  C191  1.613017 S    
C66   C98   1.443955 S    
N55   O262  1.301334 A    
C131  N35   1.495223 S    
N51   O253  1.301887 A    
C42   C114  1.429068 S    
N30   O163  1.301297 A    
N36   O191  1.298321 A    
C209  C225  1.410434 A    
C74   N11   1.440571 S    
C70   C102  1.443942 S    
O95   C7    1.268655 A    
C146  C178  1.606353 S    
O48   C40   1.279901 A    
O233  H49   0.993914 S    
O69   C48   1.278400 A    
C235  N27   1.438760 S    
C39   C121  1.429541 S    
C242  C257  1.203131 T    
N46   O212  1.303002 A    
N15   O134  1.301329 A    
Zn10  O59   1.908428 S    
C171  N59   1.481947 S    
C133  C135  1.594434 S    
C63   O183  1.385830 S    
O235  H51   0.993044 S    
C134  C136  1.591832 S    
N60   O272  1.300453 A    
O238  H54   0.989347 S    
O87   C31   1.279220 A    
Zn14  O63   1.908428 S    
O184  H32   0.987736 S    
C77   C93   1.409382 A    
C170  H10   1.107845 S    
C166  H6    1.107845 S    
C218  C234  1.410580 A    
Zn21  O29   1.906567 S    
C98   C122  1.203351 T    
O55   C38   1.278771 A    
O50   C35   1.279030 A    
N8    O120  1.301331 A    
O80   C24   1.279915 A    
N52   O255  1.302037 A    
C95   C111  1.442267 S    
C153  O241  1.408377 S    
Zn16  O13   1.960662 S    
O242  H58   0.989352 S    
O23   C15   1.265783 A    
N32   O167  1.301279 A    
N7    O117  1.301387 A    
O225  H41   0.994224 S    
Zn4   O17   1.960662 S    
C205  C221  1.410460 A    
C216  C248  1.442419 S    
N17   O137  1.301273 A    
O36   C28   1.279081 A    
N75   O302  1.300524 A    
Zn19  O3    1.936098 S    
O227  H43   0.991002 S    
C150  C152  1.600355 S    
N87   O326  1.301276 A    
Zn3   O66   1.907984 S    
C168  H8    1.104648 S    
C58   O178  1.385831 S    
C165  N53   1.483605 S    
C164  C180  1.601468 S    
C29   C264  1.429379 S    
C165  C181  1.601698 S    
N22   O147  1.301278 A    
C52   C68   1.420183 A    
C30   C263  1.429421 S    
C151  N71   1.489843 S    
N91   O334  1.301278 A    
O83   C27   1.279226 A    
C154  N74   1.497578 S    
C194  N81   1.438678 S    
N56   O264  1.300453 A    
C87   N6    1.440572 S    
N7    O118  1.301326 A    
O82   C26   1.278603 A    
Zn25  O4    1.936571 S    
O81   C25   1.279319 A    
C132  C180  1.621926 S    
C245  C262  1.203136 T    
C133  C181  1.621793 S    
C149  C151  1.603481 S    
N57   O265  1.302037 A    
O33   C25   1.278460 A    
C207  C208  1.410042 A    
N11   O126  1.301329 A    
Zn7   O7    1.937443 S    
C61   C72   1.420155 A    
N64   O280  1.300450 A    
Zn22  O94   1.961655 S    
Zn8   O8    1.936100 S    
C133  N37   1.493490 S    
C96   C112  1.442132 S    
Zn12  O1    1.936100 S    
O247  H63   0.993046 S    
C89   C105  1.442132 S    
O75   C19   1.279235 A    
C255  C272  1.203077 T    
C205  N94   1.438667 S    
N62   O276  1.301103 A    
C64   C77   1.406369 A    
C162  N50   1.481949 S    
N53   O257  1.302039 A    
C157  C189  1.606131 S    
O176  H24   0.987748 S    
C136  O224  1.409913 S    
C26   C259  1.429421 S    
C199  C200  1.410045 A    
O31   C23   1.279784 A    
O77   C21   1.279311 A    
N4    O112  1.301346 A    
Zn15  O62   1.907984 S    
O221  H37   0.994222 S    
C153  C185  1.606144 S    
N3    O110  1.301327 A    
N37   O193  1.298305 A    
N6    O115  1.301390 A    
Zn19  O91   1.961168 S    
O179  H27   0.987741 S    
Zn15  O6    1.937443 S    
N44   O208  1.302689 A    
C166  C182  1.583773 S    
N50   O251  1.301882 A    
N95   O342  1.301286 A    
N70   O292  1.301691 A    
C130  O218  1.416948 S    
C37   C123  1.429668 S    
C54   O174  1.385837 S    
Zn16  O88   1.907637 S    
C204  N91   1.438665 S    
C38   C124  1.429545 S    
N85   O321  1.301277 A    
C142  C144  1.591816 S    
C202  C218  1.410312 A    
N71   O294  1.300522 A    
C146  O234  1.413297 S    
O230  H46   0.991057 S    
Zn32  O56   1.908165 S    
O91   C3    1.268656 A    
C33   C127  1.429654 S    
C86   N7    1.440578 S    
C199  N88   1.438698 S    
C34   C128  1.429538 S    
O89   C1    1.274376 A    
C214  C246  1.442479 S    
C57   O177  1.385849 S    
Zn24  O48   1.908165 S    
C135  N39   1.495233 S    
C82   N3    1.440564 S    
N3    O109  1.301389 A    
O93   C5    1.274382 A    
N86   O323  1.301274 A    
N79   O310  1.300514 A    
Zn9   O4    1.934951 S    
C160  N80   1.492528 S    
Zn6   O6    1.936569 S    
O99   C11   1.267217 A    
Zn10  O3    1.936569 S    
C155  C187  1.606409 S    
Zn29  O53   1.908606 S    
C206  C222  1.410309 A    
C87   C94   1.409457 A    
C76   N9    1.440598 S    
C93   C109  1.442131 S    
Zn31  O39   1.907413 S    
O20   C12   1.264322 A    
O39   C31   1.279798 A    
Zn4   O65   1.907778 S    
O21   C13   1.264571 A    
C147  O235  1.413305 S    
C103  C127  1.203342 T    
C237  C238  1.410291 A    
N34   O187  1.300489 A    
C104  C128  1.203274 T    
Zn9   O60   1.908363 S    
Zn3   O18   1.959917 S    
Zn18  O26   1.907392 S    
O181  H29   0.987751 S    
C88   C93   1.409446 A    
N36   O192  1.302687 A    
C173  C175  1.553571 S    
C223  C255  1.442392 S    
C250  C265  1.203127 T    
N24   O152  1.301288 A    
C158  O246  1.415935 S    
N81   O314  1.301273 A    
C107  C115  1.202986 T    
N12   O127  1.301392 A    
Zn13  O64   1.908363 S    
C101  C125  1.203274 T    
Zn26  O34   1.907392 S    
C196  N83   1.438666 S    
C195  C211  1.410304 A    
C51   O171  1.385842 S    
O67   C42   1.278718 A    
C53   C69   1.420050 A    
Zn17  O41   1.908606 S    
N16   O135  1.301392 A    
N42   O203  1.299934 A    
O65   C44   1.277790 A    
C244  C259  1.203095 T    
Zn19  O27   1.907413 S    
C14   C183  1.499572 S    
C140  O228  1.409922 S    
C227  N19   1.438762 S    
C21   C272  1.429388 S    
Zn2   O74   1.906791 S    
C15   C182  1.496945 S    
O78   C22   1.278615 A    
N25   O154  1.301293 A    
N94   O340  1.301298 A    
N84   O320  1.301277 A    
N21   O145  1.301276 A    
C193  N82   1.438665 S    
C170  C186  1.583763 S    
Zn26  O3    1.934948 S    
C132  N36   1.493546 S    
N47   O213  1.300491 A    
C174  C190  1.583757 S    
C3    C186  1.496941 S    
Zn3   O3    1.937443 S    
C151  O239  1.413320 S    
N78   O308  1.301691 A    
O173  H21   0.987739 S    
Zn17  O1    1.936571 S    
C55   C71   1.420187 A    
Zn32  O5    1.937438 S    
C129  C131  1.594398 S    
C61   C80   1.406345 A    
C130  C132  1.594429 S    
C213  C229  1.410429 A    
C156  O244  1.407518 S    
N90   O332  1.301290 A    
Zn2   O67   1.908428 S    
Zn14  O86   1.906791 S    
N68   O288  1.301587 A    
C215  C231  1.410566 A    
N89   O330  1.301282 A    
Zn20  O28   1.906731 S    
C129  O217  1.409964 S    
N31   O165  1.301284 A    
C154  O242  1.415938 S    
C256  C271  1.203097 T    
N2    O107  1.301389 A    
N49   O249  1.302050 A    
C138  O226  1.417371 S    
C135  C183  1.612994 S    
O63   C47   1.279327 A    
C62   C71   1.420057 A    
C252  C267  1.203097 T    
C137  N41   1.493486 S    
C140  C188  1.626736 S    
C207  C223  1.410300 A    
C253  C270  1.203141 T    
N66   O284  1.300510 A    
N46   O211  1.299933 A    
Zn26  O98   1.961655 S    
Zn8   O21   1.960662 S    
C86   C95   1.409390 A    
C173  H13   1.098073 S    
N27   O157  1.301277 A    
C132  O220  1.409963 S    
N17   O138  1.301290 A    
O62   C46   1.278675 A    
C239  N31   1.438759 S    
C46   C118  1.429069 S    
C27   C258  1.429494 S    
C88   N5    1.440587 S    
C197  N86   1.438669 S    
Zn9   O81   1.907616 S    
C150  C182  1.603062 S    
O217  H33   0.994219 S    
C25   C260  1.429382 S    
C166  C168  1.558061 S    
C147  C179  1.606413 S    
O231  H47   0.990996 S    
C213  C245  1.442486 S    
N96   O344  1.301280 A    
C44   C116  1.428962 S    
C40   C122  1.429671 S    
C136  N40   1.494703 S    
C243  C260  1.203074 T    
C85   C96   1.409444 A    
Zn23  O31   1.907413 S    
N73   O298  1.301584 A    
C168  N56   1.481123 S    
N38   O196  1.303002 A    
Zn30  O7    1.934948 S    
C159  N79   1.489833 S    
C139  O227  1.416946 S    
C83   C90   1.409413 A    
N72   O295  1.302931 A    
O37   C29   1.278463 A    
C169  C171  1.553541 S    
Zn20  O92   1.960423 S    
Zn27  O35   1.907413 S    
C17   C268  1.429378 S    
C130  N34   1.495229 S    
O35   C27   1.279792 A    
C18   C267  1.429426 S    
N39   O197  1.300493 A    
Zn26  O50   1.908542 S    
N9    O121  1.301394 A    
O44   C36   1.279662 A    
Zn1   O73   1.907616 S    
C75   N10   1.440596 S    
N67   O286  1.300514 A    
C7    C190  1.496933 S    
C159  C191  1.606419 S    
O236  H52   0.993907 S    
C136  C184  1.626736 S    
Zn15  O14   1.959917 S    
C60   C65   1.420051 A    
O175  H23   0.987739 S    
C138  N42   1.493931 S    
C175  C191  1.587170 S    
C160  O248  1.407522 S    
C111  C119  1.202984 T    
Zn12  O84   1.907637 S    
C51   C82   1.406248 A    
C165  C167  1.553557 S    
C170  N58   1.482520 S    
O58   C42   1.279278 A    
O223  H39   0.990999 S    
C49   C84   1.406344 A    
O10   C2    1.267957 A    
N33   O186  1.302689 A    
C4    C185  1.503160 S    
Zn5   O24   1.961149 S    
O73   C17   1.279315 A    
O182  H30   0.987751 S    
Zn6   O23   1.960429 S    
C221  C237  1.410422 A    
C162  C178  1.587405 S    
N74   O300  1.301691 A    
N4    O111  1.301396 A    
C53   C88   1.406200 A    
C247  C264  1.203074 T    
Zn32  O40   1.906731 S    
C201  C202  1.410071 A    
Zn4   O76   1.907637 S    
C197  C198  1.410055 A    
C73   C89   1.409449 A    
O180  H28   0.987754 S    
O70   C47   1.278668 A    
C142  O230  1.417382 S    
C28   C257  1.429486 S    
C169  C185  1.601712 S    
C251  C268  1.203073 T    
Zn8   O80   1.907637 S    
N29   O161  1.301296 A    
N48   O216  1.302686 A    
C176  H16   1.104648 S    
C9    C180  1.503108 S    
N28   O160  1.301286 A    
O244  H60   0.992342 S    
C134  C182  1.605698 S    
C152  O240  1.407525 S    
C51   C67   1.420071 A    
C10   C179  1.499580 S    
O53   C40   1.279682 A    
C78   N15   1.440577 S    
O34   C26   1.279198 A    
C207  N96   1.438693 S    
O54   C39   1.278794 A    
C49   C65   1.420147 A    
O76   C20   1.279911 A    
C172  H12   1.104648 S    
O79   C23   1.279241 A    
N18   O139  1.301277 A    
Zn13  O8    1.934951 S    
N40   O200  1.302687 A    
O26   C18   1.279197 A    
C50   C66   1.420184 A    
Zn14  O7    1.936569 S    
N80   O311  1.302932 A    
N77   O306  1.301584 A    
O220  H36   0.994218 S    
O85   C29   1.279316 A    
N41   O202  1.302693 A    
N30   O164  1.301293 A    
O239  H55   0.993043 S    
C143  O231  1.416942 S    
C170  C172  1.558067 S    
N91   O333  1.301273 A    
N51   O254  1.301336 A    
N77   O305  1.302998 A    
O24   C16   1.264375 A    
Zn8   O69   1.907778 S    
C159  O247  1.413307 S    
O90   C2    1.267325 A    
Zn29  O37   1.906567 S    
Zn10  O82   1.906791 S    
C23   C270  1.429504 S    
C71   C103  1.443938 S    
Zn16  O5    1.936100 S    
C145  N65   1.496683 S    
O18   C10   1.267950 A    
N69   O290  1.301582 A    
C142  N46   1.493920 S    
N11   O125  1.301392 A    
Zn24  O32   1.906731 S    
C81   N4    1.440603 S    
O13   C5    1.264551 A    
N1    O106  1.301333 A    
C72   C104  1.443823 S    
C52   O172  1.385838 S    
C162  C164  1.553582 S    
C62   C79   1.406271 A    
Zn1   O68   1.908363 S    
N49   O250  1.300461 A    
Zn30  O38   1.907392 S    
N93   O337  1.301281 A    
N89   O329  1.301287 A    
C147  N67   1.489838 S    
N5    O114  1.301332 A    
C163  H3    1.106748 S    
C149  C181  1.606140 S    
O246  H62   0.989351 S    
C148  C180  1.606205 S    
C150  N70   1.497583 S    
N67   O285  1.303070 A    
C106  C114  1.202980 T    
C151  C183  1.606406 S    
C139  N43   1.495215 S    
O234  H50   0.993042 S    
Zn31  O55   1.907959 S    
C152  C184  1.612637 S    
C59   C74   1.406255 A    
O22   C14   1.267951 A    
C150  O238  1.415943 S    
C237  N29   1.438745 S    
N71   O293  1.303068 A    
C174  H14   1.107846 S    
O101  C13   1.274367 A    
C201  C217  1.410481 A    
N10   O123  1.301391 A    
C57   C76   1.406210 A    
N32   O168  1.301291 A    
C110  C118  1.202978 T    
N13   O129  1.301387 A    
C144  N48   1.494728 S    
O94   C6    1.267346 A    
C63   C70   1.420189 A    
C141  C189  1.621790 S    
N59   O269  1.301881 A    
O28   C20   1.279092 A    
C141  O229  1.409955 S    
C67   C99   1.443949 S    
O183  H31   0.987736 S    
O29   C21   1.278472 A    
C43   C115  1.429081 S    
C65   C97   1.443823 S    
C220  C236  1.410416 A    
N5    O113  1.301390 A    
O170  H18   0.987743 S    
C41   C113  1.428966 S    
N92   O336  1.301276 A    
O32   C24   1.279110 A    
N22   O148  1.301292 A    
Zn16  O61   1.907778 S    
O17   C9    1.264196 A    
C161  C163  1.553616 S    
Zn6   O71   1.908428 S    
C69   C101  1.443820 S    
Zn22  O46   1.908542 S    
C45   C117  1.428957 S    
C60   C73   1.406224 A    
Zn31  O103  1.961168 S    
N54   O259  1.301788 A    
N47   O214  1.303060 A    
C226  N18   1.438759 S    
Zn32  O104  1.960423 S    
C79   N14   1.440568 S    
C102  C126  1.203350 T    
C145  C147  1.603482 S    
N76   O303  1.302929 A    
C148  N68   1.496677 S    
C78   C94   1.409389 A    
C99   C123  1.203351 T    
C171  H11   1.106760 S    
C82   C91   1.409440 A    
C195  C196  1.410043 A    
N58   O267  1.301786 A    
N43   O206  1.303057 A    
C233  C234  1.410284 A    
O248  H64   0.992343 S    
N26   O156  1.301292 A    
O25   C17   1.278464 A    
C235  C236  1.410247 A    
C55   O175  1.385829 S    
O45   C37   1.279680 A    
C160  C192  1.612641 S    
Zn28  O36   1.906731 S    
C137  C185  1.621804 S    
O92   C4    1.275413 A    
N69   O289  1.303000 A    
N31   O166  1.301291 A    
N45   O210  1.302689 A    
Zn13  O85   1.907616 S    
O232  H48   0.994127 S    
C156  C188  1.612647 S    
N41   O201  1.298301 A    
C60   O180  1.385839 S    
C50   C83   1.406421 A    
C212  C228  1.410417 A    
C231  N23   1.438761 S    
Zn31  O6    1.936098 S    
C80   N13   1.440594 S    
Zn30  O102  1.961655 S    
C131  O219  1.416952 S    
C200  N87   1.438666 S    
N59   O270  1.301334 A    
C74   C90   1.409443 A    
N93   O338  1.301295 A    
C54   C87   1.406261 A    
N62   O275  1.301788 A    
C203  C219  1.410301 A    
N34   O188  1.303055 A    
C236  N28   1.438757 S    
C164  N52   1.483592 S    
C148  O236  1.408362 S    
O103  C15   1.268648 A    
Zn7   O79   1.906954 S    
O30   C22   1.279189 A    
C176  N64   1.481117 S    
C211  C243  1.442387 S    
N61   O273  1.302039 A    
Zn1   O20   1.961149 S    
C90   C106  1.442267 S    
Zn2   O19   1.960429 S    
C161  H1    1.098074 S    
N63   O277  1.301881 A    
C76   C92   1.409448 A    
C173  N61   1.483596 S    
Zn21  O5    1.936571 S    
N86   O324  1.301280 A    
N20   O143  1.301276 A    
C193  C209  1.410464 A    
O224  H40   0.994133 S    
N88   O327  1.301283 A    
C221  C253  1.442488 S    
Zn5   O77   1.907616 S    
Zn7   O22   1.959917 S    
N60   O271  1.301743 A    
C85   N8    1.440595 S    
C142  C190  1.605705 S    
Zn17  O25   1.906567 S    
N82   O315  1.301270 A    
Zn3   O75   1.906954 S    
C146  N66   1.489835 S    
N55   O261  1.301881 A    
C158  C190  1.603060 S    
N8    O119  1.301394 A    
C202  N89   1.438687 S    
O71   C46   1.279317 A    
Zn27  O99   1.961168 S    
N65   O281  1.302997 A    
C149  N69   1.496682 S    
O228  H44   0.994130 S    
C155  N75   1.489848 S    
C211  C227  1.410566 A    
C140  N44   1.494710 S    
Zn25  O97   1.960935 S    
C154  C186  1.603053 S    
Zn1   O1    1.934951 S    
C239  C240  1.410247 A    
C59   O179  1.385841 S    
C59   C66   1.420075 A    
C129  C177  1.621788 S    
N26   O155  1.301288 A    
Zn20  O44   1.908165 S    
N81   O313  1.301276 A    
Zn12  O9    1.960662 S    
C57   C68   1.420052 A    
N12   O128  1.301334 A    
C79   C95   1.409463 A    
C83   N2    1.440596 S    
C130  C178  1.612866 S    
C61   O181  1.385830 S    
C20   C265  1.429467 S    
C229  N21   1.438756 S    
O38   C30   1.279197 A    
C167  C183  1.587186 S    
C64   O184  1.385841 S    
N16   O136  1.301327 A    
C168  C184  1.603832 S    
C73   N12   1.440598 S    
C58   C67   1.420192 A    
C169  H9    1.098066 S    
O172  H20   0.987737 S    
O102  C14   1.267336 A    
O51   C34   1.278990 A    
C219  C251  1.442384 S    
C32   C261  1.429488 S    
Zn29  O8    1.936571 S    
O174  H22   0.987743 S    
C35   C125  1.429534 S    
N25   O153  1.301284 A    
O49   C36   1.279920 A    
C217  C249  1.442504 S    
C164  H4    1.098074 S    
N56   O263  1.301745 A    
C68   C100  1.443827 S    
C144  O232  1.409912 S    
Zn11  O10   1.959917 S    
C153  C155  1.603477 S    
C58   C75   1.406427 A    
C172  N60   1.481118 S    
C234  N26   1.438760 S    
C196  C212  1.410468 A    
C203  C204  1.410044 A    
Zn15  O87   1.906954 S    
N57   O266  1.300459 A    
C92   C108  1.442122 S    
C22   C271  1.429428 S    
C167  N55   1.481945 S    
O226  H42   0.991050 S    
O11   C3    1.265773 A    
N64   O279  1.301743 A    
C137  C139  1.594446 S    
O57   C41   1.278397 A    
Zn30  O54   1.908542 S    
Zn27  O51   1.907959 S    
O74   C18   1.278611 A    
O169  H17   0.987749 S    
C138  C140  1.591818 S    
C222  C238  1.410585 A    
C163  C179  1.587170 S    
C157  C159  1.603498 S    
C48   C120  1.428959 S    
C199  C215  1.410303 A    
N35   O190  1.303060 A    
Zn5   O72   1.908363 S    
C19   C266  1.429519 S    
C75   C91   1.409414 A    
Zn21  O93   1.960935 S    
Zn6   O78   1.906791 S    
N61   O274  1.300460 A    
C145  C177  1.606117 S    
O64   C48   1.277820 A    
O68   C41   1.277822 A    
N2    O108  1.301325 A    
Zn28  O100  1.960423 S    
N13   O130  1.301330 A    
Zn27  O2    1.936098 S    
C133  O221  1.409953 S    
N80   O312  1.300366 A    
C166  N54   1.482524 S    
N39   O198  1.303058 A    
O42   C34   1.278800 A    
N44   O207  1.298828 A    
N37   O194  1.302692 A    
C158  N78   1.497577 S    
O100  C12   1.275452 A    
N15   O133  1.301388 A    
O47   C39   1.278996 A    
Zn12  O57   1.907778 S    
Zn25  O33   1.906567 S    
N70   O291  1.302541 A    
C194  C210  1.410315 A    
N10   O124  1.301326 A    
O52   C33   1.279668 A    
N65   O282  1.301592 A    
N29   O162  1.301295 A    
O218  H34   0.990996 S    
N85   O322  1.301273 A    
O27   C19   1.279797 A    
Zn20  O4    1.937438 S    
C97   C121  1.203274 T    
C176  C192  1.603822 S    
O177  H25   0.987741 S    
C145  O233  1.408358 S    
O86   C30   1.278607 A    
O56   C37   1.279899 A    
O59   C43   1.278724 A    
C175  N63   1.481939 S    
C175  H15   1.106753 S    
Zn22  O30   1.907392 S    
O96   C8    1.275445 A    
N53   O258  1.300459 A    
N35   O189  1.300493 A    
O19   C11   1.268256 A    
N23   O149  1.301282 A    
N88   O328  1.301276 A    
N73   O297  1.303000 A    
C100  C124  1.203278 T    
C49   O169  1.385828 S    
C134  O222  1.417379 S    
C171  C187  1.587196 S    
C77   N16   1.440606 S    
N90   O331  1.301274 A    
C248  C263  1.203095 T    
N72   O296  1.300369 A    
Zn18  O2    1.934948 S    
C55   C86   1.406395 A    
C225  C226  1.410285 A    
C143  N47   1.495244 S    
C146  C148  1.603497 S    
C206  N93   1.438663 S    
N14   O132  1.301328 A    
C161  N49   1.483589 S    
Zn18  O90   1.961655 S    
C210  C226  1.410580 A    
C56   C72   1.420056 A    
C163  N51   1.481934 S    
C141  C143  1.594411 S    
C11   C178  1.499616 S    
O43   C35   1.278760 A    
C214  C230  1.410581 A    
C169  N57   1.483608 S    
C246  C261  1.203134 T    
C156  N76   1.492529 S    
N83   O317  1.301272 A    
O178  H26   0.987745 S    
C144  C192  1.626744 S    
O240  H56   0.992339 S    
O237  H53   0.993909 S    
Zn17  O89   1.960935 S    
O9    C1    1.264559 A    
N24   O151  1.301277 A    
Zn9   O12   1.961149 S    
C108  C116  1.202906 T    
C209  C241  1.442487 S    
Zn10  O11   1.960429 S    
N82   O316  1.301279 A    
C129  N33   1.493529 S    
O84   C28   1.279934 A    
Zn11  O2    1.937443 S    
C149  O237  1.408370 S    
C172  C188  1.603821 S    
Zn28  O1    1.937438 S    
Zn13  O16   1.961149 S    
C228  N20   1.438754 S    
N87   O325  1.301275 A    
C112  C120  1.202908 T    
O219  H35   0.991000 S    
Zn14  O15   1.960429 S    
C215  C247  1.442386 S    
C138  C186  1.605707 S    
O241  H57   0.993904 S    
C153  N73   1.496681 S    
N94   O339  1.301278 A    
C208  N95   1.438664 S    
Zn19  O43   1.907959 S    
N84   O319  1.301284 A    
C193  C194  1.410057 A    
C161  C177  1.601677 S    
N43   O205  1.300494 A    
N21   O146  1.301292 A    
O243  H59   0.993046 S    
C158  C160  1.600365 S    
Zn11  O58   1.907984 S    
C229  C230  1.410294 A    
C233  N25   1.438751 S    
C174  N62   1.482512 S    
N75   O301  1.303069 A    
N78   O307  1.302541 A    
Zn24  O8    1.937438 S    
N6    O116  1.301328 A    
C84   C89   1.409395 A    
O12   C4    1.264397 A    
C154  C156  1.600367 S    
C241  C258  1.203138 T    
C36   C126  1.429672 S    
C216  C232  1.410416 A    
C12   C177  1.503119 S    
N66   O283  1.303073 A    
C238  N30   1.438753 S    
Zn18  O42   1.908542 S    
N68   O287  1.302998 A    
Zn21  O45   1.908606 S    
O46   C38   1.279026 A    
C80   C96   1.409400 A    
C165  H5    1.098068 S    
C220  C252  1.442419 S    
Zn23  O47   1.907959 S    
C81   C92   1.409374 A    
O171  H19   0.987740 S    
C2    C187  1.499560 S    
O41   C33   1.279908 A    
Zn23  O7    1.936098 S    
C8    C189  1.503128 S    
C231  C232  1.410248 A    
C197  C213  1.410466 A    
C208  C224  1.410470 A    
O66   C43   1.279275 A    
